(PID.TID 0000.0001) 
(PID.TID 0000.0001) // ======================================================
(PID.TID 0000.0001) //                      MITgcm UV
(PID.TID 0000.0001) //                      =========
(PID.TID 0000.0001) // ======================================================
(PID.TID 0000.0001) // execution environment starting up...
(PID.TID 0000.0001) 
(PID.TID 0000.0001) // Build user:        jahn
(PID.TID 0000.0001) // Build host:        saramago.mit.edu
(PID.TID 0000.0001) // Build date:        Wed Jun 12 13:49:16 EDT 2013
(PID.TID 0000.0001) 
(PID.TID 0000.0001) // =======================================================
(PID.TID 0000.0001) // Execution Environment parameter file "eedata"
(PID.TID 0000.0001) // =======================================================
(PID.TID 0000.0001) ># Example "eedata" file
(PID.TID 0000.0001) ># Lines beginning "#" are comments
(PID.TID 0000.0001) ># nTx - No. threads per process in X
(PID.TID 0000.0001) ># nTy - No. threads per process in Y
(PID.TID 0000.0001) > &EEPARMS
(PID.TID 0000.0001) > nTx=1,nTy=1
(PID.TID 0000.0001) > /
(PID.TID 0000.0001) ># Note: Some systems use & as the
(PID.TID 0000.0001) ># namelist terminator. Other systems
(PID.TID 0000.0001) ># use a / character (as shown here).
(PID.TID 0000.0001) 
(PID.TID 0000.0001) // =======================================================
(PID.TID 0000.0001) // Computational Grid Specification ( see files "SIZE.h" )
(PID.TID 0000.0001) //                                  ( and "eedata"       )
(PID.TID 0000.0001) // =======================================================
(PID.TID 0000.0001)      nPx =    1 ; /* No. processes in X */
(PID.TID 0000.0001)      nPy =    1 ; /* No. processes in Y */
(PID.TID 0000.0001)      nSx =    1 ; /* No. tiles in X per process */
(PID.TID 0000.0001)      nSy =    1 ; /* No. tiles in Y per process */
(PID.TID 0000.0001)      sNx =    1 ; /* Tile size in X */
(PID.TID 0000.0001)      sNy =    1 ; /* Tile size in Y */
(PID.TID 0000.0001)      OLx =    2 ; /* Tile overlap distance in X */
(PID.TID 0000.0001)      OLy =    2 ; /* Tile overlap distance in Y */
(PID.TID 0000.0001)      nTx =    1 ; /* No. threads in X per process */
(PID.TID 0000.0001)      nTy =    1 ; /* No. threads in Y per process */
(PID.TID 0000.0001)       Nr =   35 ; /* No. levels in the vertical   */
(PID.TID 0000.0001)       Nx =    1 ; /* Total domain size in X ( = nPx*nSx*sNx ) */
(PID.TID 0000.0001)       Ny =    1 ; /* Total domain size in Y ( = nPy*nSy*sNy ) */
(PID.TID 0000.0001)   nTiles =    1 ; /* Total no. tiles per process ( = nSx*nSy ) */
(PID.TID 0000.0001)   nProcs =    1 ; /* Total no. processes ( = nPx*nPy ) */
(PID.TID 0000.0001) nThreads =    1 ; /* Total no. threads per process ( = nTx*nTy ) */
(PID.TID 0000.0001) usingMPI =    F ; /* Flag used to control whether MPI is in use */
(PID.TID 0000.0001)                   /*  note: To execute a program with MPI calls */
(PID.TID 0000.0001)                   /*  it must be launched appropriately e.g     */
(PID.TID 0000.0001)                   /*  "mpirun -np 64 ......"                    */
(PID.TID 0000.0001) useCoupler=    F ;/* Flag used to control communications with   */
(PID.TID 0000.0001)                   /*  other model components, through a coupler */
(PID.TID 0000.0001) debugMode =    F ; /* print debug msg. (sequence of S/R calls)  */
(PID.TID 0000.0001) printMapIncludesZeros=    F ; /* print zeros in Std.Output maps */
(PID.TID 0000.0001) maxLengthPrt1D=   65 /* maxLength of 1D array printed to StdOut */
(PID.TID 0000.0001) 
(PID.TID 0000.0001) // ======================================================
(PID.TID 0000.0001) // Mapping of tiles to threads
(PID.TID 0000.0001) // ======================================================
(PID.TID 0000.0001) // -o- Thread   1, tiles (   1:   1,   1:   1)
(PID.TID 0000.0001) 
(PID.TID 0000.0001) // ======================================================
(PID.TID 0000.0001) // Tile <-> Tile connectvity table
(PID.TID 0000.0001) // ======================================================
(PID.TID 0000.0001) // Tile number: 000001 (process no. = 000000)
(PID.TID 0000.0001) //        WEST: Tile = 000001, Process = 000000, Comm = put
(PID.TID 0000.0001) //                bi = 000001, bj = 000001
(PID.TID 0000.0001) //        EAST: Tile = 000001, Process = 000000, Comm = put
(PID.TID 0000.0001) //                bi = 000001, bj = 000001
(PID.TID 0000.0001) //       SOUTH: Tile = 000001, Process = 000000, Comm = put
(PID.TID 0000.0001) //                bi = 000001, bj = 000001
(PID.TID 0000.0001) //       NORTH: Tile = 000001, Process = 000000, Comm = put
(PID.TID 0000.0001) //                bi = 000001, bj = 000001
(PID.TID 0000.0001) 
(PID.TID 0000.0001)  INI_PARMS: opening model parameter file "data"
(PID.TID 0000.0001)  OPEN_COPY_DATA_FILE: opening file data
(PID.TID 0000.0001) // =======================================================
(PID.TID 0000.0001) // Parameter file "data"
(PID.TID 0000.0001) // =======================================================
(PID.TID 0000.0001) >#
(PID.TID 0000.0001) ># ******************************
(PID.TID 0000.0001) ># Model parameters
(PID.TID 0000.0001) ># Continuous equation parameters
(PID.TID 0000.0001) ># ******************************
(PID.TID 0000.0001) >&PARM01
(PID.TID 0000.0001) >tRef= 26.5, 26.1, 26., 25.5, 25.4, 24.9, 24.5, 24.0, 23.7,
(PID.TID 0000.0001) >      23.3, 23.1, 22.8, 22.5, 22.1, 21.6, 20.6, 19.5, 18.4,
(PID.TID 0000.0001) >      17.3, 16.6, 15.5, 14.6, 13.8, 13.1, 11.6, 10.1, 7.7,
(PID.TID 0000.0001) >      5.3, 4.1, 3.7, 3.7, 3.4, 3.0, 2.8, 2.6,
(PID.TID 0000.0001) >sRef= 35*35.00,
(PID.TID 0000.0001) >no_slip_sides=.false.,
(PID.TID 0000.0001) >no_slip_bottom=.TRUE.,
(PID.TID 0000.0001) >viscAz=0.e0,
(PID.TID 0000.0001) >viscAh=0.e0,
(PID.TID 0000.0001) >diffKhT=1.E2,
(PID.TID 0000.0001) >diffKzT=1.E-4,
(PID.TID 0000.0001) >diffKhS=0.D0,
(PID.TID 0000.0001) >diffKzS=0.D0,
(PID.TID 0000.0001) >beta=1.E-11,
(PID.TID 0000.0001) >tAlpha=2.E-4,
(PID.TID 0000.0001) >sBeta =7.4E-4,
(PID.TID 0000.0001) >gravity=9.81,
(PID.TID 0000.0001) >gBaro=9.81,
(PID.TID 0000.0001) >rigidLid=.TRUE.,
(PID.TID 0000.0001) >implicitFreeSurface=.false.,
(PID.TID 0000.0001) >eosType='JMD95Z',
(PID.TID 0000.0001) >saltStepping=.FALSE.,
(PID.TID 0000.0001) >tempStepping=.TRUE.,
(PID.TID 0000.0001) >tempAdvection=.TRUE.,
(PID.TID 0000.0001) >momStepping=.FALSE.,
(PID.TID 0000.0001) >implicitDiffusion=.true.,
(PID.TID 0000.0001) >implicitViscosity=.true.,
(PID.TID 0000.0001) >allowFreezing=.false.,
(PID.TID 0000.0001) >useSingleCpuIO=.TRUE.,
(PID.TID 0000.0001) >useCDscheme=.FALSE.,
(PID.TID 0000.0001) >tempAdvScheme = 3,
(PID.TID 0000.0001) >saltAdvScheme = 3,
(PID.TID 0000.0001) >/
(PID.TID 0000.0001) >
(PID.TID 0000.0001) ># **************************
(PID.TID 0000.0001) ># Elliptic solver parameters
(PID.TID 0000.0001) ># **************************
(PID.TID 0000.0001) >&PARM02
(PID.TID 0000.0001) >cg2dMaxIters=300,
(PID.TID 0000.0001) >cg2dTargetResidual=1.E-7,
(PID.TID 0000.0001) >/
(PID.TID 0000.0001) >
(PID.TID 0000.0001) ># ************************
(PID.TID 0000.0001) ># Time stepping parameters
(PID.TID 0000.0001) ># ************************
(PID.TID 0000.0001) >&PARM03
(PID.TID 0000.0001) > nIter0=000000,
(PID.TID 0000.0001) ># nTimeSteps=86400,
(PID.TID 0000.0001) > nTimeSteps=4,
(PID.TID 0000.0001) > deltaTmom= 10800.,
(PID.TID 0000.0001) > deltaTtracer= 10800.,
(PID.TID 0000.0001) > deltaTClock = 10800.,
(PID.TID 0000.0001) >#benw set to 0. to switch off cAdj (?)
(PID.TID 0000.0001) > cAdjFreq=0.,
(PID.TID 0000.0001) > abEps=0.1,
(PID.TID 0000.0001) > pChkptFreq  = 31104000.0,
(PID.TID 0000.0001) > chkptFreq   = 31104000.0,
(PID.TID 0000.0001) > monitorFreq = 1.,
(PID.TID 0000.0001) > dumpFreq    = 31104000.0,
(PID.TID 0000.0001) > taveFreq    = 86400.,
(PID.TID 0000.0001) > tauThetaClimRelax=259200.,
(PID.TID 0000.0001) > tauSaltClimRelax=0.,
(PID.TID 0000.0001) > periodicExternalForcing=.TRUE.,
(PID.TID 0000.0001) > externForcingPeriod=2592000.,
(PID.TID 0000.0001) > externForcingCycle=31104000.,
(PID.TID 0000.0001) >/
(PID.TID 0000.0001) >
(PID.TID 0000.0001) ># *******************
(PID.TID 0000.0001) ># Gridding parameters
(PID.TID 0000.0001) ># *******************
(PID.TID 0000.0001) >&PARM04
(PID.TID 0000.0001) >usingCartesianGrid=.FALSE.,
(PID.TID 0000.0001) >usingSphericalPolarGrid=.TRUE.,
(PID.TID 0000.0001) >delX=1*1.E0,
(PID.TID 0000.0001) >delY=1*1.E0,
(PID.TID 0000.0001) >delZ=14*10, 5*15, 4*20, 2*50, 100, 2*150, 200, 300, 3*400, 2*500,
(PID.TID 0000.0001) >xgOrigin=335,
(PID.TID 0000.0001) >ygOrigin=-18.,
(PID.TID 0000.0001) >/
(PID.TID 0000.0001) >
(PID.TID 0000.0001) ># **********
(PID.TID 0000.0001) ># Data Files
(PID.TID 0000.0001) ># **********
(PID.TID 0000.0001) >&PARM05
(PID.TID 0000.0001) >bathyFile=       '../input/input/bathyneg.bin',
(PID.TID 0000.0001) >hydrogThetaFile= '../input/input/loc1_temp_janprof.bin',
(PID.TID 0000.0001) >hydrogSaltFile=  '../input/input/salt_uniform.bin',
(PID.TID 0000.0001) >zonalWindFile=   '../input/input/wind_u_mon.bin',
(PID.TID 0000.0001) >meridWindFile=   '../input/input/wind_v_mon.bin',
(PID.TID 0000.0001) >thetaClimFile=   '../input/input/loc1_temp_monsurf.bin',
(PID.TID 0000.0001) >saltClimFile=    '',
(PID.TID 0000.0001) >surfQFile=       '',
(PID.TID 0000.0001) >EmPmRFile=       '',
(PID.TID 0000.0001) >/
(PID.TID 0000.0001) 
(PID.TID 0000.0001)  INI_PARMS ; starts to read PARM01
(PID.TID 0000.0001)  INI_PARMS ; read PARM01 : OK
(PID.TID 0000.0001)  INI_PARMS ; starts to read PARM02
(PID.TID 0000.0001)  INI_PARMS ; read PARM02 : OK
(PID.TID 0000.0001)  INI_PARMS ; starts to read PARM03
(PID.TID 0000.0001)  INI_PARMS ; read PARM03 : OK
(PID.TID 0000.0001)  INI_PARMS ; starts to read PARM04
(PID.TID 0000.0001)  INI_PARMS ; read PARM04 : OK
(PID.TID 0000.0001)  INI_PARMS ; starts to read PARM05
(PID.TID 0000.0001)  INI_PARMS ; read PARM05 : OK
(PID.TID 0000.0001)  INI_PARMS: finished reading file "data"
(PID.TID 0000.0001)  PACKAGES_BOOT: opening data.pkg
(PID.TID 0000.0001)  OPEN_COPY_DATA_FILE: opening file data.pkg
(PID.TID 0000.0001) // =======================================================
(PID.TID 0000.0001) // Parameter file "data.pkg"
(PID.TID 0000.0001) // =======================================================
(PID.TID 0000.0001) ># Packages
(PID.TID 0000.0001) > &PACKAGES
(PID.TID 0000.0001) > usePTRACERS=.TRUE.
(PID.TID 0000.0001) > useGCHEM=.TRUE.,
(PID.TID 0000.0001) ># useDiagnostics=.TRUE.,
(PID.TID 0000.0001) > useKPP=.TRUE.,
(PID.TID 0000.0001) > useMNC=.TRUE.,
(PID.TID 0000.0001) > /
(PID.TID 0000.0001) 
(PID.TID 0000.0001)  PACKAGES_BOOT: finished reading data.pkg
(PID.TID 0000.0001)  MNC_READPARMS: opening file 'data.mnc'
(PID.TID 0000.0001)  OPEN_COPY_DATA_FILE: opening file data.mnc
(PID.TID 0000.0001) // =======================================================
(PID.TID 0000.0001) // Parameter file "data.mnc"
(PID.TID 0000.0001) // =======================================================
(PID.TID 0000.0001) ># Example "data.mnc" file
(PID.TID 0000.0001) ># Lines beginning "#" are comments
(PID.TID 0000.0001) > &MNC_01
(PID.TID 0000.0001) ># mnc_echo_gvtypes=.FALSE.,
(PID.TID 0000.0001) ># mnc_use_indir=.FALSE.,
(PID.TID 0000.0001) > mnc_use_outdir=.TRUE.,
(PID.TID 0000.0001) > mnc_outdir_str='dar1d_',
(PID.TID 0000.0001) > mnc_outdir_date=.TRUE.,
(PID.TID 0000.0001) > monitor_mnc=.FALSE.,
(PID.TID 0000.0001) > snapshot_mnc=.TRUE.,
(PID.TID 0000.0001) > timeave_mnc=.TRUE.,
(PID.TID 0000.0001) > pickup_read_mnc=.FALSE.,
(PID.TID 0000.0001) > pickup_write_mnc=.FALSE.,
(PID.TID 0000.0001) > /
(PID.TID 0000.0001) ># Note: Some systems use & as the
(PID.TID 0000.0001) ># namelist terminator. Other systems
(PID.TID 0000.0001) ># use a / character.
(PID.TID 0000.0001) 
(PID.TID 0000.0001)  MNC_READPARMS: finished reading data.mnc
(PID.TID 0000.0001)  KPP_INIT: opening data.kpp
(PID.TID 0000.0001)  OPEN_COPY_DATA_FILE: opening file data.kpp
(PID.TID 0000.0001) // =======================================================
(PID.TID 0000.0001) // Parameter file "data.kpp"
(PID.TID 0000.0001) // =======================================================
(PID.TID 0000.0001) ># KPP parameters
(PID.TID 0000.0001) > &KPP_PARM01
(PID.TID 0000.0001) > KPPmixingMaps   = .FALSE.,
(PID.TID 0000.0001) > KPPwriteState   = .TRUE.,
(PID.TID 0000.0001) > kpp_dumpFreq    = 2592000.
(PID.TID 0000.0001) > kpp_tavefreq    = 2592000.
(PID.TID 0000.0001) > Ricr            = 0.3559
(PID.TID 0000.0001) > Riinfty         = 0.6998
(PID.TID 0000.0001) > /
(PID.TID 0000.0001) 
(PID.TID 0000.0001)  KPP_INIT: finished reading data.kpp
(PID.TID 0000.0001)  PTRACERS_READPARMS: opening data.ptracers
(PID.TID 0000.0001)  OPEN_COPY_DATA_FILE: opening file data.ptracers
(PID.TID 0000.0001) // =======================================================
(PID.TID 0000.0001) // Parameter file "data.ptracers"
(PID.TID 0000.0001) // =======================================================
(PID.TID 0000.0001) > &PTRACERS_PARM01
(PID.TID 0000.0001) > PTRACERS_numInUse=74,
(PID.TID 0000.0001) > PTRACERS_Iter0= 0,
(PID.TID 0000.0001) ># tracer 1 - Dissolved Inorganic Carbon
(PID.TID 0000.0001) > PTRACERS_names(1)='DIC',
(PID.TID 0000.0001) > PTRACERS_units(1)='mmol C/m^3',
(PID.TID 0000.0001) > PTRACERS_advScheme(1)=33,
(PID.TID 0000.0001) > PTRACERS_diffKh(1)=0.E3,
(PID.TID 0000.0001) > PTRACERS_diffKr(1)=1.E-5,
(PID.TID 0000.0001) > PTRACERS_useGMRedi(1)=.FALSE.,
(PID.TID 0000.0001) > PTRACERS_useKPP(1)=.TRUE.,
(PID.TID 0000.0001) > PTRACERS_initialFile(1)='../input/input/loc1_DIC_annprof.bin',
(PID.TID 0000.0001) ># tracer 2 - Nitrate
(PID.TID 0000.0001) > PTRACERS_names(2)='NO3',
(PID.TID 0000.0001) > PTRACERS_units(2)='mmol N/m^3',
(PID.TID 0000.0001) > PTRACERS_advScheme(2)=33,
(PID.TID 0000.0001) > PTRACERS_diffKh(2)=0.E3,
(PID.TID 0000.0001) > PTRACERS_diffKr(2)=1.E-5,
(PID.TID 0000.0001) > PTRACERS_useGMRedi(2)=.FALSE.,
(PID.TID 0000.0001) > PTRACERS_useKPP(2)=.TRUE.,
(PID.TID 0000.0001) > PTRACERS_initialFile(2)='../input/input/loc1_nitr_janprof.bin',
(PID.TID 0000.0001) ># tracer 3 - Nitrite
(PID.TID 0000.0001) > PTRACERS_names(3)='NO2',
(PID.TID 0000.0001) > PTRACERS_units(3)='mmol N/m^3',
(PID.TID 0000.0001) > PTRACERS_advScheme(3)=33,
(PID.TID 0000.0001) > PTRACERS_diffKh(3)=0.E3,
(PID.TID 0000.0001) > PTRACERS_diffKr(3)=1.E-5,
(PID.TID 0000.0001) > PTRACERS_useGMRedi(3)=.FALSE.,
(PID.TID 0000.0001) > PTRACERS_useKPP(3)=.TRUE.,
(PID.TID 0000.0001) > PTRACERS_initialFile(3)='../input/input/loc1_NO2_run83_janprof.bin',
(PID.TID 0000.0001) ># tracer 4 - Ammonium
(PID.TID 0000.0001) > PTRACERS_names(4)='NH4',
(PID.TID 0000.0001) > PTRACERS_units(4)='mmol N/m^3',
(PID.TID 0000.0001) > PTRACERS_advScheme(4)=33,
(PID.TID 0000.0001) > PTRACERS_diffKh(4)=0.E3,
(PID.TID 0000.0001) > PTRACERS_diffKr(4)=1.E-5,
(PID.TID 0000.0001) > PTRACERS_useGMRedi(4)=.FALSE.,
(PID.TID 0000.0001) > PTRACERS_useKPP(4)=.TRUE.,
(PID.TID 0000.0001) > PTRACERS_initialFile(4)='../input/input/loc1_NH4_run83_janprof.bin',
(PID.TID 0000.0001) ># tracer 5 - Dissolved Iron
(PID.TID 0000.0001) > PTRACERS_names(5)='FeT',
(PID.TID 0000.0001) > PTRACERS_units(5)='mmol Fe/m^3',
(PID.TID 0000.0001) > PTRACERS_advScheme(5)=33,
(PID.TID 0000.0001) > PTRACERS_diffKh(5)=0.E3,
(PID.TID 0000.0001) > PTRACERS_diffKr(5)=1.E-5,
(PID.TID 0000.0001) > PTRACERS_useGMRedi(5)=.FALSE.,
(PID.TID 0000.0001) > PTRACERS_useKPP(5)=.TRUE.,
(PID.TID 0000.0001) > PTRACERS_initialFile(5)='../input/input/loc1_FeT_run83_janprof.bin',
(PID.TID 0000.0001) ># tracer 6 - Carbon Biomass: Plankton(1)
(PID.TID 0000.0001) > PTRACERS_names(6)='BIO_1_001',
(PID.TID 0000.0001) > PTRACERS_units(6)='mmol C/m^3',
(PID.TID 0000.0001) > PTRACERS_advScheme(6)=33,
(PID.TID 0000.0001) > PTRACERS_diffKh(6)=0.E3,
(PID.TID 0000.0001) > PTRACERS_diffKr(6)=1.E-5,
(PID.TID 0000.0001) > PTRACERS_useGMRedi(6)=.FALSE.,
(PID.TID 0000.0001) > PTRACERS_useKPP(6)=.TRUE.,
(PID.TID 0000.0001) > PTRACERS_initialFile(6)='../input/input/loc1_C_biomass_janprof.bin',
(PID.TID 0000.0001) ># tracer 7 - Carbon Biomass: Plankton(2)
(PID.TID 0000.0001) > PTRACERS_names(7)='BIO_1_002',
(PID.TID 0000.0001) > PTRACERS_units(7)='mmol C/m^3',
(PID.TID 0000.0001) > PTRACERS_advScheme(7)=33,
(PID.TID 0000.0001) > PTRACERS_diffKh(7)=0.E3,
(PID.TID 0000.0001) > PTRACERS_diffKr(7)=1.E-5,
(PID.TID 0000.0001) > PTRACERS_useGMRedi(7)=.FALSE.,
(PID.TID 0000.0001) > PTRACERS_useKPP(7)=.TRUE.,
(PID.TID 0000.0001) > PTRACERS_initialFile(7)='../input/input/loc1_C_biomass_janprof.bin',
(PID.TID 0000.0001) ># tracer 8 - Carbon Biomass: Plankton(3)
(PID.TID 0000.0001) > PTRACERS_names(8)='BIO_1_003',
(PID.TID 0000.0001) > PTRACERS_units(8)='mmol C/m^3',
(PID.TID 0000.0001) > PTRACERS_advScheme(8)=33,
(PID.TID 0000.0001) > PTRACERS_diffKh(8)=0.E3,
(PID.TID 0000.0001) > PTRACERS_diffKr(8)=1.E-5,
(PID.TID 0000.0001) > PTRACERS_useGMRedi(8)=.FALSE.,
(PID.TID 0000.0001) > PTRACERS_useKPP(8)=.TRUE.,
(PID.TID 0000.0001) > PTRACERS_initialFile(8)='../input/input/loc1_C_biomass_janprof.bin',
(PID.TID 0000.0001) ># tracer 9 - Carbon Biomass: Plankton(4)
(PID.TID 0000.0001) > PTRACERS_names(9)='BIO_1_004',
(PID.TID 0000.0001) > PTRACERS_units(9)='mmol C/m^3',
(PID.TID 0000.0001) > PTRACERS_advScheme(9)=33,
(PID.TID 0000.0001) > PTRACERS_diffKh(9)=0.E3,
(PID.TID 0000.0001) > PTRACERS_diffKr(9)=1.E-5,
(PID.TID 0000.0001) > PTRACERS_useGMRedi(9)=.FALSE.,
(PID.TID 0000.0001) > PTRACERS_useKPP(9)=.TRUE.,
(PID.TID 0000.0001) > PTRACERS_initialFile(9)='../input/input/loc1_C_biomass_janprof.bin',
(PID.TID 0000.0001) ># tracer 10 - Carbon Biomass: Plankton(5)
(PID.TID 0000.0001) > PTRACERS_names(10)='BIO_1_005',
(PID.TID 0000.0001) > PTRACERS_units(10)='mmol C/m^3',
(PID.TID 0000.0001) > PTRACERS_advScheme(10)=33,
(PID.TID 0000.0001) > PTRACERS_diffKh(10)=0.E3,
(PID.TID 0000.0001) > PTRACERS_diffKr(10)=1.E-5,
(PID.TID 0000.0001) > PTRACERS_useGMRedi(10)=.FALSE.,
(PID.TID 0000.0001) > PTRACERS_useKPP(10)=.TRUE.,
(PID.TID 0000.0001) > PTRACERS_initialFile(10)='../input/input/loc1_C_biomass_janprof.bin',
(PID.TID 0000.0001) ># tracer 11 - Carbon Biomass: Plankton(6)
(PID.TID 0000.0001) > PTRACERS_names(11)='BIO_1_006',
(PID.TID 0000.0001) > PTRACERS_units(11)='mmol C/m^3',
(PID.TID 0000.0001) > PTRACERS_advScheme(11)=33,
(PID.TID 0000.0001) > PTRACERS_diffKh(11)=0.E3,
(PID.TID 0000.0001) > PTRACERS_diffKr(11)=1.E-5,
(PID.TID 0000.0001) > PTRACERS_useGMRedi(11)=.FALSE.,
(PID.TID 0000.0001) > PTRACERS_useKPP(11)=.TRUE.,
(PID.TID 0000.0001) > PTRACERS_initialFile(11)='../input/input/loc1_C_biomass_janprof.bin',
(PID.TID 0000.0001) ># tracer 12 - Carbon Biomass: Plankton(7)
(PID.TID 0000.0001) > PTRACERS_names(12)='BIO_1_007',
(PID.TID 0000.0001) > PTRACERS_units(12)='mmol C/m^3',
(PID.TID 0000.0001) > PTRACERS_advScheme(12)=33,
(PID.TID 0000.0001) > PTRACERS_diffKh(12)=0.E3,
(PID.TID 0000.0001) > PTRACERS_diffKr(12)=1.E-5,
(PID.TID 0000.0001) > PTRACERS_useGMRedi(12)=.FALSE.,
(PID.TID 0000.0001) > PTRACERS_useKPP(12)=.TRUE.,
(PID.TID 0000.0001) > PTRACERS_initialFile(12)='../input/input/loc1_C_biomass_janprof.bin',
(PID.TID 0000.0001) ># tracer 13 - Carbon Biomass: Plankton(8)
(PID.TID 0000.0001) > PTRACERS_names(13)='BIO_1_008',
(PID.TID 0000.0001) > PTRACERS_units(13)='mmol C/m^3',
(PID.TID 0000.0001) > PTRACERS_advScheme(13)=33,
(PID.TID 0000.0001) > PTRACERS_diffKh(13)=0.E3,
(PID.TID 0000.0001) > PTRACERS_diffKr(13)=1.E-5,
(PID.TID 0000.0001) > PTRACERS_useGMRedi(13)=.FALSE.,
(PID.TID 0000.0001) > PTRACERS_useKPP(13)=.TRUE.,
(PID.TID 0000.0001) > PTRACERS_initialFile(13)='../input/input/loc1_C_biomass_janprof.bin',
(PID.TID 0000.0001) ># tracer 14 - Carbon Biomass: Plankton(9)
(PID.TID 0000.0001) > PTRACERS_names(14)='BIO_1_009',
(PID.TID 0000.0001) > PTRACERS_units(14)='mmol C/m^3',
(PID.TID 0000.0001) > PTRACERS_advScheme(14)=33,
(PID.TID 0000.0001) > PTRACERS_diffKh(14)=0.E3,
(PID.TID 0000.0001) > PTRACERS_diffKr(14)=1.E-5,
(PID.TID 0000.0001) > PTRACERS_useGMRedi(14)=.FALSE.,
(PID.TID 0000.0001) > PTRACERS_useKPP(14)=.TRUE.,
(PID.TID 0000.0001) > PTRACERS_initialFile(14)='../input/input/loc1_C_biomass_janprof.bin',
(PID.TID 0000.0001) ># tracer 15 - Carbon Biomass: Plankton(10)
(PID.TID 0000.0001) > PTRACERS_names(15)='BIO_1_010',
(PID.TID 0000.0001) > PTRACERS_units(15)='mmol C/m^3',
(PID.TID 0000.0001) > PTRACERS_advScheme(15)=33,
(PID.TID 0000.0001) > PTRACERS_diffKh(15)=0.E3,
(PID.TID 0000.0001) > PTRACERS_diffKr(15)=1.E-5,
(PID.TID 0000.0001) > PTRACERS_useGMRedi(15)=.FALSE.,
(PID.TID 0000.0001) > PTRACERS_useKPP(15)=.TRUE.,
(PID.TID 0000.0001) > PTRACERS_initialFile(15)='../input/input/loc1_C_biomass_janprof.bin',
(PID.TID 0000.0001) ># tracer 16 - Carbon Biomass: Plankton(11)
(PID.TID 0000.0001) > PTRACERS_names(16)='BIO_1_011',
(PID.TID 0000.0001) > PTRACERS_units(16)='mmol C/m^3',
(PID.TID 0000.0001) > PTRACERS_advScheme(16)=33,
(PID.TID 0000.0001) > PTRACERS_diffKh(16)=0.E3,
(PID.TID 0000.0001) > PTRACERS_diffKr(16)=1.E-5,
(PID.TID 0000.0001) > PTRACERS_useGMRedi(16)=.FALSE.,
(PID.TID 0000.0001) > PTRACERS_useKPP(16)=.TRUE.,
(PID.TID 0000.0001) > PTRACERS_initialFile(16)='../input/input/loc1_C_biomass_janprof.bin',
(PID.TID 0000.0001) ># tracer 17 - Carbon Biomass: Plankton(12)
(PID.TID 0000.0001) > PTRACERS_names(17)='BIO_1_012',
(PID.TID 0000.0001) > PTRACERS_units(17)='mmol C/m^3',
(PID.TID 0000.0001) > PTRACERS_advScheme(17)=33,
(PID.TID 0000.0001) > PTRACERS_diffKh(17)=0.E3,
(PID.TID 0000.0001) > PTRACERS_diffKr(17)=1.E-5,
(PID.TID 0000.0001) > PTRACERS_useGMRedi(17)=.FALSE.,
(PID.TID 0000.0001) > PTRACERS_useKPP(17)=.TRUE.,
(PID.TID 0000.0001) > PTRACERS_initialFile(17)='../input/input/loc1_C_biomass_janprof.bin',
(PID.TID 0000.0001) ># tracer 18 - Carbon Biomass: Plankton(13)
(PID.TID 0000.0001) > PTRACERS_names(18)='BIO_1_013',
(PID.TID 0000.0001) > PTRACERS_units(18)='mmol C/m^3',
(PID.TID 0000.0001) > PTRACERS_advScheme(18)=33,
(PID.TID 0000.0001) > PTRACERS_diffKh(18)=0.E3,
(PID.TID 0000.0001) > PTRACERS_diffKr(18)=1.E-5,
(PID.TID 0000.0001) > PTRACERS_useGMRedi(18)=.FALSE.,
(PID.TID 0000.0001) > PTRACERS_useKPP(18)=.TRUE.,
(PID.TID 0000.0001) > PTRACERS_initialFile(18)='../input/input/loc1_C_biomass_janprof.bin',
(PID.TID 0000.0001) ># tracer 19 - Carbon Biomass: Plankton(14)
(PID.TID 0000.0001) > PTRACERS_names(19)='BIO_1_014',
(PID.TID 0000.0001) > PTRACERS_units(19)='mmol C/m^3',
(PID.TID 0000.0001) > PTRACERS_advScheme(19)=33,
(PID.TID 0000.0001) > PTRACERS_diffKh(19)=0.E3,
(PID.TID 0000.0001) > PTRACERS_diffKr(19)=1.E-5,
(PID.TID 0000.0001) > PTRACERS_useGMRedi(19)=.FALSE.,
(PID.TID 0000.0001) > PTRACERS_useKPP(19)=.TRUE.,
(PID.TID 0000.0001) > PTRACERS_initialFile(19)='../input/input/loc1_C_biomass_janprof.bin',
(PID.TID 0000.0001) ># tracer 20 - Carbon Biomass: Plankton(15)
(PID.TID 0000.0001) > PTRACERS_names(20)='BIO_1_015',
(PID.TID 0000.0001) > PTRACERS_units(20)='mmol C/m^3',
(PID.TID 0000.0001) > PTRACERS_advScheme(20)=33,
(PID.TID 0000.0001) > PTRACERS_diffKh(20)=0.E3,
(PID.TID 0000.0001) > PTRACERS_diffKr(20)=1.E-5,
(PID.TID 0000.0001) > PTRACERS_useGMRedi(20)=.FALSE.,
(PID.TID 0000.0001) > PTRACERS_useKPP(20)=.TRUE.,
(PID.TID 0000.0001) > PTRACERS_initialFile(20)='../input/input/loc1_C_biomass_janprof.bin',
(PID.TID 0000.0001) ># tracer 21 - Carbon Biomass: Plankton(16)
(PID.TID 0000.0001) > PTRACERS_names(21)='BIO_1_016',
(PID.TID 0000.0001) > PTRACERS_units(21)='mmol C/m^3',
(PID.TID 0000.0001) > PTRACERS_advScheme(21)=33,
(PID.TID 0000.0001) > PTRACERS_diffKh(21)=0.E3,
(PID.TID 0000.0001) > PTRACERS_diffKr(21)=1.E-5,
(PID.TID 0000.0001) > PTRACERS_useGMRedi(21)=.FALSE.,
(PID.TID 0000.0001) > PTRACERS_useKPP(21)=.TRUE.,
(PID.TID 0000.0001) > PTRACERS_initialFile(21)='../input/input/loc1_C_biomass_janprof.bin',
(PID.TID 0000.0001) ># tracer 22 - Nitrogen Biomass: Plankton(1)
(PID.TID 0000.0001) > PTRACERS_names(22)='BIO_2_001',
(PID.TID 0000.0001) > PTRACERS_units(22)='mmol N/m^3',
(PID.TID 0000.0001) > PTRACERS_advScheme(22)=33,
(PID.TID 0000.0001) > PTRACERS_diffKh(22)=0.E3,
(PID.TID 0000.0001) > PTRACERS_diffKr(22)=1.E-5,
(PID.TID 0000.0001) > PTRACERS_useGMRedi(22)=.FALSE.,
(PID.TID 0000.0001) > PTRACERS_useKPP(22)=.TRUE.,
(PID.TID 0000.0001) > PTRACERS_initialFile(22)='../input/input/loc1_N_biomass_janprof.bin',
(PID.TID 0000.0001) ># tracer 23 - Nitrogen Biomass: Plankton(2)
(PID.TID 0000.0001) > PTRACERS_names(23)='BIO_2_002',
(PID.TID 0000.0001) > PTRACERS_units(23)='mmol N/m^3',
(PID.TID 0000.0001) > PTRACERS_advScheme(23)=33,
(PID.TID 0000.0001) > PTRACERS_diffKh(23)=0.E3,
(PID.TID 0000.0001) > PTRACERS_diffKr(23)=1.E-5,
(PID.TID 0000.0001) > PTRACERS_useGMRedi(23)=.FALSE.,
(PID.TID 0000.0001) > PTRACERS_useKPP(23)=.TRUE.,
(PID.TID 0000.0001) > PTRACERS_initialFile(23)='../input/input/loc1_N_biomass_janprof.bin',
(PID.TID 0000.0001) ># tracer 24 - Nitrogen Biomass: Plankton(3)
(PID.TID 0000.0001) > PTRACERS_names(24)='BIO_2_003',
(PID.TID 0000.0001) > PTRACERS_units(24)='mmol N/m^3',
(PID.TID 0000.0001) > PTRACERS_advScheme(24)=33,
(PID.TID 0000.0001) > PTRACERS_diffKh(24)=0.E3,
(PID.TID 0000.0001) > PTRACERS_diffKr(24)=1.E-5,
(PID.TID 0000.0001) > PTRACERS_useGMRedi(24)=.FALSE.,
(PID.TID 0000.0001) > PTRACERS_useKPP(24)=.TRUE.,
(PID.TID 0000.0001) > PTRACERS_initialFile(24)='../input/input/loc1_N_biomass_janprof.bin',
(PID.TID 0000.0001) ># tracer 25 - Nitrogen Biomass: Plankton(4)
(PID.TID 0000.0001) > PTRACERS_names(25)='BIO_2_004',
(PID.TID 0000.0001) > PTRACERS_units(25)='mmol N/m^3',
(PID.TID 0000.0001) > PTRACERS_advScheme(25)=33,
(PID.TID 0000.0001) > PTRACERS_diffKh(25)=0.E3,
(PID.TID 0000.0001) > PTRACERS_diffKr(25)=1.E-5,
(PID.TID 0000.0001) > PTRACERS_useGMRedi(25)=.FALSE.,
(PID.TID 0000.0001) > PTRACERS_useKPP(25)=.TRUE.,
(PID.TID 0000.0001) > PTRACERS_initialFile(25)='../input/input/loc1_N_biomass_janprof.bin',
(PID.TID 0000.0001) ># tracer 26 - Nitrogen Biomass: Plankton(5)
(PID.TID 0000.0001) > PTRACERS_names(26)='BIO_2_005',
(PID.TID 0000.0001) > PTRACERS_units(26)='mmol N/m^3',
(PID.TID 0000.0001) > PTRACERS_advScheme(26)=33,
(PID.TID 0000.0001) > PTRACERS_diffKh(26)=0.E3,
(PID.TID 0000.0001) > PTRACERS_diffKr(26)=1.E-5,
(PID.TID 0000.0001) > PTRACERS_useGMRedi(26)=.FALSE.,
(PID.TID 0000.0001) > PTRACERS_useKPP(26)=.TRUE.,
(PID.TID 0000.0001) > PTRACERS_initialFile(26)='../input/input/loc1_N_biomass_janprof.bin',
(PID.TID 0000.0001) ># tracer 27 - Nitrogen Biomass: Plankton(6)
(PID.TID 0000.0001) > PTRACERS_names(27)='BIO_2_006',
(PID.TID 0000.0001) > PTRACERS_units(27)='mmol N/m^3',
(PID.TID 0000.0001) > PTRACERS_advScheme(27)=33,
(PID.TID 0000.0001) > PTRACERS_diffKh(27)=0.E3,
(PID.TID 0000.0001) > PTRACERS_diffKr(27)=1.E-5,
(PID.TID 0000.0001) > PTRACERS_useGMRedi(27)=.FALSE.,
(PID.TID 0000.0001) > PTRACERS_useKPP(27)=.TRUE.,
(PID.TID 0000.0001) > PTRACERS_initialFile(27)='../input/input/loc1_N_biomass_janprof.bin',
(PID.TID 0000.0001) ># tracer 28 - Nitrogen Biomass: Plankton(7)
(PID.TID 0000.0001) > PTRACERS_names(28)='BIO_2_007',
(PID.TID 0000.0001) > PTRACERS_units(28)='mmol N/m^3',
(PID.TID 0000.0001) > PTRACERS_advScheme(28)=33,
(PID.TID 0000.0001) > PTRACERS_diffKh(28)=0.E3,
(PID.TID 0000.0001) > PTRACERS_diffKr(28)=1.E-5,
(PID.TID 0000.0001) > PTRACERS_useGMRedi(28)=.FALSE.,
(PID.TID 0000.0001) > PTRACERS_useKPP(28)=.TRUE.,
(PID.TID 0000.0001) > PTRACERS_initialFile(28)='../input/input/loc1_N_biomass_janprof.bin',
(PID.TID 0000.0001) ># tracer 29 - Nitrogen Biomass: Plankton(8)
(PID.TID 0000.0001) > PTRACERS_names(29)='BIO_2_008',
(PID.TID 0000.0001) > PTRACERS_units(29)='mmol N/m^3',
(PID.TID 0000.0001) > PTRACERS_advScheme(29)=33,
(PID.TID 0000.0001) > PTRACERS_diffKh(29)=0.E3,
(PID.TID 0000.0001) > PTRACERS_diffKr(29)=1.E-5,
(PID.TID 0000.0001) > PTRACERS_useGMRedi(29)=.FALSE.,
(PID.TID 0000.0001) > PTRACERS_useKPP(29)=.TRUE.,
(PID.TID 0000.0001) > PTRACERS_initialFile(29)='../input/input/loc1_N_biomass_janprof.bin',
(PID.TID 0000.0001) ># tracer 30 - Nitrogen Biomass: Plankton(9)
(PID.TID 0000.0001) > PTRACERS_names(30)='BIO_2_009',
(PID.TID 0000.0001) > PTRACERS_units(30)='mmol N/m^3',
(PID.TID 0000.0001) > PTRACERS_advScheme(30)=33,
(PID.TID 0000.0001) > PTRACERS_diffKh(30)=0.E3,
(PID.TID 0000.0001) > PTRACERS_diffKr(30)=1.E-5,
(PID.TID 0000.0001) > PTRACERS_useGMRedi(30)=.FALSE.,
(PID.TID 0000.0001) > PTRACERS_useKPP(30)=.TRUE.,
(PID.TID 0000.0001) > PTRACERS_initialFile(30)='../input/input/loc1_N_biomass_janprof.bin',
(PID.TID 0000.0001) ># tracer 31 - Nitrogen Biomass: Plankton(10)
(PID.TID 0000.0001) > PTRACERS_names(31)='BIO_2_010',
(PID.TID 0000.0001) > PTRACERS_units(31)='mmol N/m^3',
(PID.TID 0000.0001) > PTRACERS_advScheme(31)=33,
(PID.TID 0000.0001) > PTRACERS_diffKh(31)=0.E3,
(PID.TID 0000.0001) > PTRACERS_diffKr(31)=1.E-5,
(PID.TID 0000.0001) > PTRACERS_useGMRedi(31)=.FALSE.,
(PID.TID 0000.0001) > PTRACERS_useKPP(31)=.TRUE.,
(PID.TID 0000.0001) > PTRACERS_initialFile(31)='../input/input/loc1_N_biomass_janprof.bin',
(PID.TID 0000.0001) ># tracer 32 - Nitrogen Biomass: Plankton(11)
(PID.TID 0000.0001) > PTRACERS_names(32)='BIO_2_011',
(PID.TID 0000.0001) > PTRACERS_units(32)='mmol N/m^3',
(PID.TID 0000.0001) > PTRACERS_advScheme(32)=33,
(PID.TID 0000.0001) > PTRACERS_diffKh(32)=0.E3,
(PID.TID 0000.0001) > PTRACERS_diffKr(32)=1.E-5,
(PID.TID 0000.0001) > PTRACERS_useGMRedi(32)=.FALSE.,
(PID.TID 0000.0001) > PTRACERS_useKPP(32)=.TRUE.,
(PID.TID 0000.0001) > PTRACERS_initialFile(32)='../input/input/loc1_N_biomass_janprof.bin',
(PID.TID 0000.0001) ># tracer 33 - Nitrogen Biomass: Plankton(12)
(PID.TID 0000.0001) > PTRACERS_names(33)='BIO_2_012',
(PID.TID 0000.0001) > PTRACERS_units(33)='mmol N/m^3',
(PID.TID 0000.0001) > PTRACERS_advScheme(33)=33,
(PID.TID 0000.0001) > PTRACERS_diffKh(33)=0.E3,
(PID.TID 0000.0001) > PTRACERS_diffKr(33)=1.E-5,
(PID.TID 0000.0001) > PTRACERS_useGMRedi(33)=.FALSE.,
(PID.TID 0000.0001) > PTRACERS_useKPP(33)=.TRUE.,
(PID.TID 0000.0001) > PTRACERS_initialFile(33)='../input/input/loc1_N_biomass_janprof.bin',
(PID.TID 0000.0001) ># tracer 34 - Nitrogen Biomass: Plankton(13)
(PID.TID 0000.0001) > PTRACERS_names(34)='BIO_2_013',
(PID.TID 0000.0001) > PTRACERS_units(34)='mmol N/m^3',
(PID.TID 0000.0001) > PTRACERS_advScheme(34)=33,
(PID.TID 0000.0001) > PTRACERS_diffKh(34)=0.E3,
(PID.TID 0000.0001) > PTRACERS_diffKr(34)=1.E-5,
(PID.TID 0000.0001) > PTRACERS_useGMRedi(34)=.FALSE.,
(PID.TID 0000.0001) > PTRACERS_useKPP(34)=.TRUE.,
(PID.TID 0000.0001) > PTRACERS_initialFile(34)='../input/input/loc1_N_biomass_janprof.bin',
(PID.TID 0000.0001) ># tracer 35 - Nitrogen Biomass: Plankton(14)
(PID.TID 0000.0001) > PTRACERS_names(35)='BIO_2_014',
(PID.TID 0000.0001) > PTRACERS_units(35)='mmol N/m^3',
(PID.TID 0000.0001) > PTRACERS_advScheme(35)=33,
(PID.TID 0000.0001) > PTRACERS_diffKh(35)=0.E3,
(PID.TID 0000.0001) > PTRACERS_diffKr(35)=1.E-5,
(PID.TID 0000.0001) > PTRACERS_useGMRedi(35)=.FALSE.,
(PID.TID 0000.0001) > PTRACERS_useKPP(35)=.TRUE.,
(PID.TID 0000.0001) > PTRACERS_initialFile(35)='../input/input/loc1_N_biomass_janprof.bin',
(PID.TID 0000.0001) ># tracer 36 - Nitrogen Biomass: Plankton(15)
(PID.TID 0000.0001) > PTRACERS_names(36)='BIO_2_015',
(PID.TID 0000.0001) > PTRACERS_units(36)='mmol N/m^3',
(PID.TID 0000.0001) > PTRACERS_advScheme(36)=33,
(PID.TID 0000.0001) > PTRACERS_diffKh(36)=0.E3,
(PID.TID 0000.0001) > PTRACERS_diffKr(36)=1.E-5,
(PID.TID 0000.0001) > PTRACERS_useGMRedi(36)=.FALSE.,
(PID.TID 0000.0001) > PTRACERS_useKPP(36)=.TRUE.,
(PID.TID 0000.0001) > PTRACERS_initialFile(36)='../input/input/loc1_N_biomass_janprof.bin',
(PID.TID 0000.0001) ># tracer 37 - Nitrogen Biomass: Plankton(16)
(PID.TID 0000.0001) > PTRACERS_names(37)='BIO_2_016',
(PID.TID 0000.0001) > PTRACERS_units(37)='mmol N/m^3',
(PID.TID 0000.0001) > PTRACERS_advScheme(37)=33,
(PID.TID 0000.0001) > PTRACERS_diffKh(37)=0.E3,
(PID.TID 0000.0001) > PTRACERS_diffKr(37)=1.E-5,
(PID.TID 0000.0001) > PTRACERS_useGMRedi(37)=.FALSE.,
(PID.TID 0000.0001) > PTRACERS_useKPP(37)=.TRUE.,
(PID.TID 0000.0001) > PTRACERS_initialFile(37)='../input/input/loc1_N_biomass_janprof.bin',
(PID.TID 0000.0001) ># tracer 38 - Iron Biomass: Plankton(1)
(PID.TID 0000.0001) > PTRACERS_names(38)='BIO_3_001',
(PID.TID 0000.0001) > PTRACERS_units(38)='mmol Fe/m^3',
(PID.TID 0000.0001) > PTRACERS_advScheme(38)=33,
(PID.TID 0000.0001) > PTRACERS_diffKh(38)=0.E3,
(PID.TID 0000.0001) > PTRACERS_diffKr(38)=1.E-5,
(PID.TID 0000.0001) > PTRACERS_useGMRedi(38)=.FALSE.,
(PID.TID 0000.0001) > PTRACERS_useKPP(38)=.TRUE.,
(PID.TID 0000.0001) > PTRACERS_initialFile(38)='../input/input/loc1_Fe_biomass_janprof.bin',
(PID.TID 0000.0001) ># tracer 39 - Iron Biomass: Plankton(2)
(PID.TID 0000.0001) > PTRACERS_names(39)='BIO_3_002',
(PID.TID 0000.0001) > PTRACERS_units(39)='mmol Fe/m^3',
(PID.TID 0000.0001) > PTRACERS_advScheme(39)=33,
(PID.TID 0000.0001) > PTRACERS_diffKh(39)=0.E3,
(PID.TID 0000.0001) > PTRACERS_diffKr(39)=1.E-5,
(PID.TID 0000.0001) > PTRACERS_useGMRedi(39)=.FALSE.,
(PID.TID 0000.0001) > PTRACERS_useKPP(39)=.TRUE.,
(PID.TID 0000.0001) > PTRACERS_initialFile(39)='../input/input/loc1_Fe_biomass_janprof.bin',
(PID.TID 0000.0001) ># tracer 40 - Iron Biomass: Plankton(3)
(PID.TID 0000.0001) > PTRACERS_names(40)='BIO_3_003',
(PID.TID 0000.0001) > PTRACERS_units(40)='mmol Fe/m^3',
(PID.TID 0000.0001) > PTRACERS_advScheme(40)=33,
(PID.TID 0000.0001) > PTRACERS_diffKh(40)=0.E3,
(PID.TID 0000.0001) > PTRACERS_diffKr(40)=1.E-5,
(PID.TID 0000.0001) > PTRACERS_useGMRedi(40)=.FALSE.,
(PID.TID 0000.0001) > PTRACERS_useKPP(40)=.TRUE.,
(PID.TID 0000.0001) > PTRACERS_initialFile(40)='../input/input/loc1_Fe_biomass_janprof.bin',
(PID.TID 0000.0001) ># tracer 41 - Iron Biomass: Plankton(4)
(PID.TID 0000.0001) > PTRACERS_names(41)='BIO_3_004',
(PID.TID 0000.0001) > PTRACERS_units(41)='mmol Fe/m^3',
(PID.TID 0000.0001) > PTRACERS_advScheme(41)=33,
(PID.TID 0000.0001) > PTRACERS_diffKh(41)=0.E3,
(PID.TID 0000.0001) > PTRACERS_diffKr(41)=1.E-5,
(PID.TID 0000.0001) > PTRACERS_useGMRedi(41)=.FALSE.,
(PID.TID 0000.0001) > PTRACERS_useKPP(41)=.TRUE.,
(PID.TID 0000.0001) > PTRACERS_initialFile(41)='../input/input/loc1_Fe_biomass_janprof.bin',
(PID.TID 0000.0001) ># tracer 42 - Iron Biomass: Plankton(5)
(PID.TID 0000.0001) > PTRACERS_names(42)='BIO_3_005',
(PID.TID 0000.0001) > PTRACERS_units(42)='mmol Fe/m^3',
(PID.TID 0000.0001) > PTRACERS_advScheme(42)=33,
(PID.TID 0000.0001) > PTRACERS_diffKh(42)=0.E3,
(PID.TID 0000.0001) > PTRACERS_diffKr(42)=1.E-5,
(PID.TID 0000.0001) > PTRACERS_useGMRedi(42)=.FALSE.,
(PID.TID 0000.0001) > PTRACERS_useKPP(42)=.TRUE.,
(PID.TID 0000.0001) > PTRACERS_initialFile(42)='../input/input/loc1_Fe_biomass_janprof.bin',
(PID.TID 0000.0001) ># tracer 43 - Iron Biomass: Plankton(6)
(PID.TID 0000.0001) > PTRACERS_names(43)='BIO_3_006',
(PID.TID 0000.0001) > PTRACERS_units(43)='mmol Fe/m^3',
(PID.TID 0000.0001) > PTRACERS_advScheme(43)=33,
(PID.TID 0000.0001) > PTRACERS_diffKh(43)=0.E3,
(PID.TID 0000.0001) > PTRACERS_diffKr(43)=1.E-5,
(PID.TID 0000.0001) > PTRACERS_useGMRedi(43)=.FALSE.,
(PID.TID 0000.0001) > PTRACERS_useKPP(43)=.TRUE.,
(PID.TID 0000.0001) > PTRACERS_initialFile(43)='../input/input/loc1_Fe_biomass_janprof.bin',
(PID.TID 0000.0001) ># tracer 44 - Iron Biomass: Plankton(7)
(PID.TID 0000.0001) > PTRACERS_names(44)='BIO_3_007',
(PID.TID 0000.0001) > PTRACERS_units(44)='mmol Fe/m^3',
(PID.TID 0000.0001) > PTRACERS_advScheme(44)=33,
(PID.TID 0000.0001) > PTRACERS_diffKh(44)=0.E3,
(PID.TID 0000.0001) > PTRACERS_diffKr(44)=1.E-5,
(PID.TID 0000.0001) > PTRACERS_useGMRedi(44)=.FALSE.,
(PID.TID 0000.0001) > PTRACERS_useKPP(44)=.TRUE.,
(PID.TID 0000.0001) > PTRACERS_initialFile(44)='../input/input/loc1_Fe_biomass_janprof.bin',
(PID.TID 0000.0001) ># tracer 45 - Iron Biomass: Plankton(8)
(PID.TID 0000.0001) > PTRACERS_names(45)='BIO_3_008',
(PID.TID 0000.0001) > PTRACERS_units(45)='mmol Fe/m^3',
(PID.TID 0000.0001) > PTRACERS_advScheme(45)=33,
(PID.TID 0000.0001) > PTRACERS_diffKh(45)=0.E3,
(PID.TID 0000.0001) > PTRACERS_diffKr(45)=1.E-5,
(PID.TID 0000.0001) > PTRACERS_useGMRedi(45)=.FALSE.,
(PID.TID 0000.0001) > PTRACERS_useKPP(45)=.TRUE.,
(PID.TID 0000.0001) > PTRACERS_initialFile(45)='../input/input/loc1_Fe_biomass_janprof.bin',
(PID.TID 0000.0001) ># tracer 46 - Iron Biomass: Plankton(9)
(PID.TID 0000.0001) > PTRACERS_names(46)='BIO_3_009',
(PID.TID 0000.0001) > PTRACERS_units(46)='mmol Fe/m^3',
(PID.TID 0000.0001) > PTRACERS_advScheme(46)=33,
(PID.TID 0000.0001) > PTRACERS_diffKh(46)=0.E3,
(PID.TID 0000.0001) > PTRACERS_diffKr(46)=1.E-5,
(PID.TID 0000.0001) > PTRACERS_useGMRedi(46)=.FALSE.,
(PID.TID 0000.0001) > PTRACERS_useKPP(46)=.TRUE.,
(PID.TID 0000.0001) > PTRACERS_initialFile(46)='../input/input/loc1_Fe_biomass_janprof.bin',
(PID.TID 0000.0001) ># tracer 47 - Iron Biomass: Plankton(10)
(PID.TID 0000.0001) > PTRACERS_names(47)='BIO_3_010',
(PID.TID 0000.0001) > PTRACERS_units(47)='mmol Fe/m^3',
(PID.TID 0000.0001) > PTRACERS_advScheme(47)=33,
(PID.TID 0000.0001) > PTRACERS_diffKh(47)=0.E3,
(PID.TID 0000.0001) > PTRACERS_diffKr(47)=1.E-5,
(PID.TID 0000.0001) > PTRACERS_useGMRedi(47)=.FALSE.,
(PID.TID 0000.0001) > PTRACERS_useKPP(47)=.TRUE.,
(PID.TID 0000.0001) > PTRACERS_initialFile(47)='../input/input/loc1_Fe_biomass_janprof.bin',
(PID.TID 0000.0001) ># tracer 48 - Iron Biomass: Plankton(11)
(PID.TID 0000.0001) > PTRACERS_names(48)='BIO_3_011',
(PID.TID 0000.0001) > PTRACERS_units(48)='mmol Fe/m^3',
(PID.TID 0000.0001) > PTRACERS_advScheme(48)=33,
(PID.TID 0000.0001) > PTRACERS_diffKh(48)=0.E3,
(PID.TID 0000.0001) > PTRACERS_diffKr(48)=1.E-5,
(PID.TID 0000.0001) > PTRACERS_useGMRedi(48)=.FALSE.,
(PID.TID 0000.0001) > PTRACERS_useKPP(48)=.TRUE.,
(PID.TID 0000.0001) > PTRACERS_initialFile(48)='../input/input/loc1_Fe_biomass_janprof.bin',
(PID.TID 0000.0001) ># tracer 49 - Iron Biomass: Plankton(12)
(PID.TID 0000.0001) > PTRACERS_names(49)='BIO_3_012',
(PID.TID 0000.0001) > PTRACERS_units(49)='mmol Fe/m^3',
(PID.TID 0000.0001) > PTRACERS_advScheme(49)=33,
(PID.TID 0000.0001) > PTRACERS_diffKh(49)=0.E3,
(PID.TID 0000.0001) > PTRACERS_diffKr(49)=1.E-5,
(PID.TID 0000.0001) > PTRACERS_useGMRedi(49)=.FALSE.,
(PID.TID 0000.0001) > PTRACERS_useKPP(49)=.TRUE.,
(PID.TID 0000.0001) > PTRACERS_initialFile(49)='../input/input/loc1_Fe_biomass_janprof.bin',
(PID.TID 0000.0001) ># tracer 50 - Iron Biomass: Plankton(13)
(PID.TID 0000.0001) > PTRACERS_names(50)='BIO_3_013',
(PID.TID 0000.0001) > PTRACERS_units(50)='mmol Fe/m^3',
(PID.TID 0000.0001) > PTRACERS_advScheme(50)=33,
(PID.TID 0000.0001) > PTRACERS_diffKh(50)=0.E3,
(PID.TID 0000.0001) > PTRACERS_diffKr(50)=1.E-5,
(PID.TID 0000.0001) > PTRACERS_useGMRedi(50)=.FALSE.,
(PID.TID 0000.0001) > PTRACERS_useKPP(50)=.TRUE.,
(PID.TID 0000.0001) > PTRACERS_initialFile(50)='../input/input/loc1_Fe_biomass_janprof.bin',
(PID.TID 0000.0001) ># tracer 51 - Iron Biomass: Plankton(14)
(PID.TID 0000.0001) > PTRACERS_names(51)='BIO_3_014',
(PID.TID 0000.0001) > PTRACERS_units(51)='mmol Fe/m^3',
(PID.TID 0000.0001) > PTRACERS_advScheme(51)=33,
(PID.TID 0000.0001) > PTRACERS_diffKh(51)=0.E3,
(PID.TID 0000.0001) > PTRACERS_diffKr(51)=1.E-5,
(PID.TID 0000.0001) > PTRACERS_useGMRedi(51)=.FALSE.,
(PID.TID 0000.0001) > PTRACERS_useKPP(51)=.TRUE.,
(PID.TID 0000.0001) > PTRACERS_initialFile(51)='../input/input/loc1_Fe_biomass_janprof.bin',
(PID.TID 0000.0001) ># tracer 52 - Iron Biomass: Plankton(15)
(PID.TID 0000.0001) > PTRACERS_names(52)='BIO_3_015',
(PID.TID 0000.0001) > PTRACERS_units(52)='mmol Fe/m^3',
(PID.TID 0000.0001) > PTRACERS_advScheme(52)=33,
(PID.TID 0000.0001) > PTRACERS_diffKh(52)=0.E3,
(PID.TID 0000.0001) > PTRACERS_diffKr(52)=1.E-5,
(PID.TID 0000.0001) > PTRACERS_useGMRedi(52)=.FALSE.,
(PID.TID 0000.0001) > PTRACERS_useKPP(52)=.TRUE.,
(PID.TID 0000.0001) > PTRACERS_initialFile(52)='../input/input/loc1_Fe_biomass_janprof.bin',
(PID.TID 0000.0001) ># tracer 53 - Iron Biomass: Plankton(16)
(PID.TID 0000.0001) > PTRACERS_names(53)='BIO_3_016',
(PID.TID 0000.0001) > PTRACERS_units(53)='mmol Fe/m^3',
(PID.TID 0000.0001) > PTRACERS_advScheme(53)=33,
(PID.TID 0000.0001) > PTRACERS_diffKh(53)=0.E3,
(PID.TID 0000.0001) > PTRACERS_diffKr(53)=1.E-5,
(PID.TID 0000.0001) > PTRACERS_useGMRedi(53)=.FALSE.,
(PID.TID 0000.0001) > PTRACERS_useKPP(53)=.TRUE.,
(PID.TID 0000.0001) > PTRACERS_initialFile(53)='../input/input/loc1_Fe_biomass_janprof.bin',
(PID.TID 0000.0001) ># tracer 54 - Chlorophyll Biomass: Plankton(1)
(PID.TID 0000.0001) > PTRACERS_names(54)='BIO_4_001',
(PID.TID 0000.0001) > PTRACERS_units(54)='mg Chl/m^3',
(PID.TID 0000.0001) > PTRACERS_advScheme(54)=33,
(PID.TID 0000.0001) > PTRACERS_diffKh(54)=0.E3,
(PID.TID 0000.0001) > PTRACERS_diffKr(54)=1.E-5,
(PID.TID 0000.0001) > PTRACERS_useGMRedi(54)=.FALSE.,
(PID.TID 0000.0001) > PTRACERS_useKPP(54)=.TRUE.,
(PID.TID 0000.0001) > PTRACERS_initialFile(54)='../input/input/loc1_chlorophyll_janprof.bin',
(PID.TID 0000.0001) ># tracer 55 - Chlorophyll Biomass: Plankton(2)
(PID.TID 0000.0001) > PTRACERS_names(55)='BIO_4_002',
(PID.TID 0000.0001) > PTRACERS_units(55)='mg Chl/m^3',
(PID.TID 0000.0001) > PTRACERS_advScheme(55)=33,
(PID.TID 0000.0001) > PTRACERS_diffKh(55)=0.E3,
(PID.TID 0000.0001) > PTRACERS_diffKr(55)=1.E-5,
(PID.TID 0000.0001) > PTRACERS_useGMRedi(55)=.FALSE.,
(PID.TID 0000.0001) > PTRACERS_useKPP(55)=.TRUE.,
(PID.TID 0000.0001) > PTRACERS_initialFile(55)='../input/input/loc1_chlorophyll_janprof.bin',
(PID.TID 0000.0001) ># tracer 56 - Chlorophyll Biomass: Plankton(3)
(PID.TID 0000.0001) > PTRACERS_names(56)='BIO_4_003',
(PID.TID 0000.0001) > PTRACERS_units(56)='mg Chl/m^3',
(PID.TID 0000.0001) > PTRACERS_advScheme(56)=33,
(PID.TID 0000.0001) > PTRACERS_diffKh(56)=0.E3,
(PID.TID 0000.0001) > PTRACERS_diffKr(56)=1.E-5,
(PID.TID 0000.0001) > PTRACERS_useGMRedi(56)=.FALSE.,
(PID.TID 0000.0001) > PTRACERS_useKPP(56)=.TRUE.,
(PID.TID 0000.0001) > PTRACERS_initialFile(56)='../input/input/loc1_chlorophyll_janprof.bin',
(PID.TID 0000.0001) ># tracer 57 - Chlorophyll Biomass: Plankton(4)
(PID.TID 0000.0001) > PTRACERS_names(57)='BIO_4_004',
(PID.TID 0000.0001) > PTRACERS_units(57)='mg Chl/m^3',
(PID.TID 0000.0001) > PTRACERS_advScheme(57)=33,
(PID.TID 0000.0001) > PTRACERS_diffKh(57)=0.E3,
(PID.TID 0000.0001) > PTRACERS_diffKr(57)=1.E-5,
(PID.TID 0000.0001) > PTRACERS_useGMRedi(57)=.FALSE.,
(PID.TID 0000.0001) > PTRACERS_useKPP(57)=.TRUE.,
(PID.TID 0000.0001) > PTRACERS_initialFile(57)='../input/input/loc1_chlorophyll_janprof.bin',
(PID.TID 0000.0001) ># tracer 58 - Chlorophyll Biomass: Plankton(5)
(PID.TID 0000.0001) > PTRACERS_names(58)='BIO_4_005',
(PID.TID 0000.0001) > PTRACERS_units(58)='mg Chl/m^3',
(PID.TID 0000.0001) > PTRACERS_advScheme(58)=33,
(PID.TID 0000.0001) > PTRACERS_diffKh(58)=0.E3,
(PID.TID 0000.0001) > PTRACERS_diffKr(58)=1.E-5,
(PID.TID 0000.0001) > PTRACERS_useGMRedi(58)=.FALSE.,
(PID.TID 0000.0001) > PTRACERS_useKPP(58)=.TRUE.,
(PID.TID 0000.0001) > PTRACERS_initialFile(58)='../input/input/loc1_chlorophyll_janprof.bin',
(PID.TID 0000.0001) ># tracer 59 - Chlorophyll Biomass: Plankton(6)
(PID.TID 0000.0001) > PTRACERS_names(59)='BIO_4_006',
(PID.TID 0000.0001) > PTRACERS_units(59)='mg Chl/m^3',
(PID.TID 0000.0001) > PTRACERS_advScheme(59)=33,
(PID.TID 0000.0001) > PTRACERS_diffKh(59)=0.E3,
(PID.TID 0000.0001) > PTRACERS_diffKr(59)=1.E-5,
(PID.TID 0000.0001) > PTRACERS_useGMRedi(59)=.FALSE.,
(PID.TID 0000.0001) > PTRACERS_useKPP(59)=.TRUE.,
(PID.TID 0000.0001) > PTRACERS_initialFile(59)='../input/input/loc1_chlorophyll_janprof.bin',
(PID.TID 0000.0001) ># tracer 60 - Chlorophyll Biomass: Plankton(7)
(PID.TID 0000.0001) > PTRACERS_names(60)='BIO_4_007',
(PID.TID 0000.0001) > PTRACERS_units(60)='mg Chl/m^3',
(PID.TID 0000.0001) > PTRACERS_advScheme(60)=33,
(PID.TID 0000.0001) > PTRACERS_diffKh(60)=0.E3,
(PID.TID 0000.0001) > PTRACERS_diffKr(60)=1.E-5,
(PID.TID 0000.0001) > PTRACERS_useGMRedi(60)=.FALSE.,
(PID.TID 0000.0001) > PTRACERS_useKPP(60)=.TRUE.,
(PID.TID 0000.0001) > PTRACERS_initialFile(60)='../input/input/loc1_chlorophyll_janprof.bin',
(PID.TID 0000.0001) ># tracer 61 - Chlorophyll Biomass: Plankton(8)
(PID.TID 0000.0001) > PTRACERS_names(61)='BIO_4_008',
(PID.TID 0000.0001) > PTRACERS_units(61)='mg Chl/m^3',
(PID.TID 0000.0001) > PTRACERS_advScheme(61)=33,
(PID.TID 0000.0001) > PTRACERS_diffKh(61)=0.E3,
(PID.TID 0000.0001) > PTRACERS_diffKr(61)=1.E-5,
(PID.TID 0000.0001) > PTRACERS_useGMRedi(61)=.FALSE.,
(PID.TID 0000.0001) > PTRACERS_useKPP(61)=.TRUE.,
(PID.TID 0000.0001) > PTRACERS_initialFile(61)='../input/input/loc1_chlorophyll_janprof.bin',
(PID.TID 0000.0001) ># tracer 62 - Chlorophyll Biomass: Plankton(9)
(PID.TID 0000.0001) > PTRACERS_names(62)='BIO_4_009',
(PID.TID 0000.0001) > PTRACERS_units(62)='mg Chl/m^3',
(PID.TID 0000.0001) > PTRACERS_advScheme(62)=33,
(PID.TID 0000.0001) > PTRACERS_diffKh(62)=0.E3,
(PID.TID 0000.0001) > PTRACERS_diffKr(62)=1.E-5,
(PID.TID 0000.0001) > PTRACERS_useGMRedi(62)=.FALSE.,
(PID.TID 0000.0001) > PTRACERS_useKPP(62)=.TRUE.,
(PID.TID 0000.0001) > PTRACERS_initialFile(62)='../input/input/loc1_chlorophyll_janprof.bin',
(PID.TID 0000.0001) ># tracer 63 - Chlorophyll Biomass: Plankton(10)
(PID.TID 0000.0001) > PTRACERS_names(63)='BIO_4_010',
(PID.TID 0000.0001) > PTRACERS_units(63)='mg Chl/m^3',
(PID.TID 0000.0001) > PTRACERS_advScheme(63)=33,
(PID.TID 0000.0001) > PTRACERS_diffKh(63)=0.E3,
(PID.TID 0000.0001) > PTRACERS_diffKr(63)=1.E-5,
(PID.TID 0000.0001) > PTRACERS_useGMRedi(63)=.FALSE.,
(PID.TID 0000.0001) > PTRACERS_useKPP(63)=.TRUE.,
(PID.TID 0000.0001) > PTRACERS_initialFile(63)='../input/input/loc1_chlorophyll_janprof.bin',
(PID.TID 0000.0001) ># tracer 64 - Chlorophyll Biomass: Plankton(11)
(PID.TID 0000.0001) > PTRACERS_names(64)='BIO_4_011',
(PID.TID 0000.0001) > PTRACERS_units(64)='mg Chl/m^3',
(PID.TID 0000.0001) > PTRACERS_advScheme(64)=33,
(PID.TID 0000.0001) > PTRACERS_diffKh(64)=0.E3,
(PID.TID 0000.0001) > PTRACERS_diffKr(64)=1.E-5,
(PID.TID 0000.0001) > PTRACERS_useGMRedi(64)=.FALSE.,
(PID.TID 0000.0001) > PTRACERS_useKPP(64)=.TRUE.,
(PID.TID 0000.0001) > PTRACERS_initialFile(64)='../input/input/loc1_chlorophyll_janprof.bin',
(PID.TID 0000.0001) ># tracer 65 - Chlorophyll Biomass: Plankton(12)
(PID.TID 0000.0001) > PTRACERS_names(65)='BIO_4_012',
(PID.TID 0000.0001) > PTRACERS_units(65)='mg Chl/m^3',
(PID.TID 0000.0001) > PTRACERS_advScheme(65)=33,
(PID.TID 0000.0001) > PTRACERS_diffKh(65)=0.E3,
(PID.TID 0000.0001) > PTRACERS_diffKr(65)=1.E-5,
(PID.TID 0000.0001) > PTRACERS_useGMRedi(65)=.FALSE.,
(PID.TID 0000.0001) > PTRACERS_useKPP(65)=.TRUE.,
(PID.TID 0000.0001) > PTRACERS_initialFile(65)='../input/input/loc1_chlorophyll_janprof.bin',
(PID.TID 0000.0001) ># tracer 66 - Chlorophyll Biomass: Plankton(13)
(PID.TID 0000.0001) > PTRACERS_names(66)='BIO_4_013',
(PID.TID 0000.0001) > PTRACERS_units(66)='mg Chl/m^3',
(PID.TID 0000.0001) > PTRACERS_advScheme(66)=33,
(PID.TID 0000.0001) > PTRACERS_diffKh(66)=0.E3,
(PID.TID 0000.0001) > PTRACERS_diffKr(66)=1.E-5,
(PID.TID 0000.0001) > PTRACERS_useGMRedi(66)=.FALSE.,
(PID.TID 0000.0001) > PTRACERS_useKPP(66)=.TRUE.,
(PID.TID 0000.0001) > PTRACERS_initialFile(66)='../input/input/loc1_chlorophyll_janprof.bin',
(PID.TID 0000.0001) ># tracer 67 - Chlorophyll Biomass: Plankton(14)
(PID.TID 0000.0001) > PTRACERS_names(67)='BIO_4_014',
(PID.TID 0000.0001) > PTRACERS_units(67)='mg Chl/m^3',
(PID.TID 0000.0001) > PTRACERS_advScheme(67)=33,
(PID.TID 0000.0001) > PTRACERS_diffKh(67)=0.E3,
(PID.TID 0000.0001) > PTRACERS_diffKr(67)=1.E-5,
(PID.TID 0000.0001) > PTRACERS_useGMRedi(67)=.FALSE.,
(PID.TID 0000.0001) > PTRACERS_useKPP(67)=.TRUE.,
(PID.TID 0000.0001) > PTRACERS_initialFile(67)='../input/input/loc1_chlorophyll_janprof.bin',
(PID.TID 0000.0001) ># tracer 68 - Chlorophyll Biomass: Plankton(15)
(PID.TID 0000.0001) > PTRACERS_names(68)='BIO_4_015',
(PID.TID 0000.0001) > PTRACERS_units(68)='mg Chl/m^3',
(PID.TID 0000.0001) > PTRACERS_advScheme(68)=33,
(PID.TID 0000.0001) > PTRACERS_diffKh(68)=0.E3,
(PID.TID 0000.0001) > PTRACERS_diffKr(68)=1.E-5,
(PID.TID 0000.0001) > PTRACERS_useGMRedi(68)=.FALSE.,
(PID.TID 0000.0001) > PTRACERS_useKPP(68)=.TRUE.,
(PID.TID 0000.0001) > PTRACERS_initialFile(68)='../input/input/loc1_chlorophyll_janprof.bin',
(PID.TID 0000.0001) ># tracer 69 - Dissolved Organic Carbon
(PID.TID 0000.0001) > PTRACERS_names(69)='OM_1_1',
(PID.TID 0000.0001) > PTRACERS_units(69)='mmol C/m^3',
(PID.TID 0000.0001) > PTRACERS_advScheme(69)=33,
(PID.TID 0000.0001) > PTRACERS_diffKh(69)=0.E3,
(PID.TID 0000.0001) > PTRACERS_diffKr(69)=1.E-5,
(PID.TID 0000.0001) > PTRACERS_useGMRedi(69)=.FALSE.,
(PID.TID 0000.0001) > PTRACERS_useKPP(69)=.TRUE.,
(PID.TID 0000.0001) > PTRACERS_initialFile(69)='../input/input/loc1_DOC_janprof.bin',
(PID.TID 0000.0001) ># tracer 70 - Particulate Organic Carbon
(PID.TID 0000.0001) > PTRACERS_names(70)='OM_1_2',
(PID.TID 0000.0001) > PTRACERS_units(70)='mmol C/m^3',
(PID.TID 0000.0001) > PTRACERS_advScheme(70)=33,
(PID.TID 0000.0001) > PTRACERS_diffKh(70)=0.E3,
(PID.TID 0000.0001) > PTRACERS_diffKr(70)=1.E-5,
(PID.TID 0000.0001) > PTRACERS_useGMRedi(70)=.FALSE.,
(PID.TID 0000.0001) > PTRACERS_useKPP(70)=.TRUE.,
(PID.TID 0000.0001) > PTRACERS_initialFile(70)='../input/input/loc1_POC_janprof.bin',
(PID.TID 0000.0001) ># tracer 71 - Dissolved Organic Nitrogen
(PID.TID 0000.0001) > PTRACERS_names(71)='OM_2_1',
(PID.TID 0000.0001) > PTRACERS_units(71)='mmol N/m^3',
(PID.TID 0000.0001) > PTRACERS_advScheme(71)=33,
(PID.TID 0000.0001) > PTRACERS_diffKh(71)=0.E3,
(PID.TID 0000.0001) > PTRACERS_diffKr(71)=1.E-5,
(PID.TID 0000.0001) > PTRACERS_useGMRedi(71)=.FALSE.,
(PID.TID 0000.0001) > PTRACERS_useKPP(71)=.TRUE.,
(PID.TID 0000.0001) > PTRACERS_initialFile(71)='../input/input/loc1_DON_run83_janprof.bin',
(PID.TID 0000.0001) ># tracer 72 - Particulate Organic Nitrogen
(PID.TID 0000.0001) > PTRACERS_names(72)='OM_2_2',
(PID.TID 0000.0001) > PTRACERS_units(72)='mmol N/m^3',
(PID.TID 0000.0001) > PTRACERS_advScheme(72)=33,
(PID.TID 0000.0001) > PTRACERS_diffKh(72)=0.E3,
(PID.TID 0000.0001) > PTRACERS_diffKr(72)=1.E-5,
(PID.TID 0000.0001) > PTRACERS_useGMRedi(72)=.FALSE.,
(PID.TID 0000.0001) > PTRACERS_useKPP(72)=.TRUE.,
(PID.TID 0000.0001) > PTRACERS_initialFile(72)='../input/input/loc1_PON_run83_janprof.bin',
(PID.TID 0000.0001) ># tracer 73 - Dissolved Organic Iron
(PID.TID 0000.0001) > PTRACERS_names(73)='OM_3_1',
(PID.TID 0000.0001) > PTRACERS_units(73)='mmol Fe/m^3',
(PID.TID 0000.0001) > PTRACERS_advScheme(73)=33,
(PID.TID 0000.0001) > PTRACERS_diffKh(73)=0.E3,
(PID.TID 0000.0001) > PTRACERS_diffKr(73)=1.E-5,
(PID.TID 0000.0001) > PTRACERS_useGMRedi(73)=.FALSE.,
(PID.TID 0000.0001) > PTRACERS_useKPP(73)=.TRUE.,
(PID.TID 0000.0001) > PTRACERS_initialFile(73)='../input/input/loc1_DOFe_run83_janprof.bin',
(PID.TID 0000.0001) ># tracer 74 - Particulate Organic Iron
(PID.TID 0000.0001) > PTRACERS_names(74)='OM_3_2',
(PID.TID 0000.0001) > PTRACERS_units(74)='mmol Fe/m^3',
(PID.TID 0000.0001) > PTRACERS_advScheme(74)=33,
(PID.TID 0000.0001) > PTRACERS_diffKh(74)=0.E3,
(PID.TID 0000.0001) > PTRACERS_diffKr(74)=1.E-5,
(PID.TID 0000.0001) > PTRACERS_useGMRedi(74)=.FALSE.,
(PID.TID 0000.0001) > PTRACERS_useKPP(74)=.TRUE.,
(PID.TID 0000.0001) > PTRACERS_initialFile(74)='../input/input/loc1_POFe_run83_janprof.bin',
(PID.TID 0000.0001) > /
(PID.TID 0000.0001) 
(PID.TID 0000.0001)  PTRACERS_READPARMS: finished reading data.ptracers
(PID.TID 0000.0001)  GCHEM_READPARMS: opening data.gchem
(PID.TID 0000.0001)  OPEN_COPY_DATA_FILE: opening file data.gchem
(PID.TID 0000.0001) // =======================================================
(PID.TID 0000.0001) // Parameter file "data.gchem"
(PID.TID 0000.0001) // =======================================================
(PID.TID 0000.0001) > &GCHEM_PARM01
(PID.TID 0000.0001) >  useDARWIN=.TRUE.,
(PID.TID 0000.0001) >  nsubtime=3,
(PID.TID 0000.0001) > /
(PID.TID 0000.0001) 
(PID.TID 0000.0001)  GCHEM_READPARMS: finished reading data.gchem
(PID.TID 0000.0001)  DARWIN_READPARMS: opening data.darwin
(PID.TID 0000.0001)  OPEN_COPY_DATA_FILE: opening file data.darwin
(PID.TID 0000.0001) // =======================================================
(PID.TID 0000.0001) // Parameter file "data.darwin"
(PID.TID 0000.0001) // =======================================================
(PID.TID 0000.0001) > &DARWIN_FORCING
(PID.TID 0000.0001) > darwin_ironFile='../input/input/loc1_FeFlux_monsurf.bin',
(PID.TID 0000.0001) > darwin_PARFile='../input/input/loc1_PAR_monsurf.bin',
(PID.TID 0000.0001) > darwin_ForcingPeriod=2592000.,
(PID.TID 0000.0001) > darwin_ForcingCycle=31104000.,
(PID.TID 0000.0001) >#darwin_PO4_fluxFile='../input/input/ann_nphos_flux.bin',
(PID.TID 0000.0001) >#darwin_NO3_fluxFile='../input/input/ann_nnitr_flux.bin',
(PID.TID 0000.0001) >#darwin_Si_fluxFile='../input/input/ann_nsil_flux.bin',
(PID.TID 0000.0001) > darwin_seed=11231,
(PID.TID 0000.0001) > /
(PID.TID 0000.0001) 
(PID.TID 0000.0001)  DARWIN_READPARMS: finished reading data.darwin
(PID.TID 0000.0001) // ===================================
(PID.TID 0000.0001) // darwin parameters
(PID.TID 0000.0001) // ===================================
(PID.TID 0000.0001) darwin_seed = /* seed for random number generator */
(PID.TID 0000.0001)                   11231
(PID.TID 0000.0001)     ;
(PID.TID 0000.0001)  -----------------------------------
(PID.TID 0000.0001)  ===================================
(PID.TID 0000.0001) SET_PARMS: done
(PID.TID 0000.0001) Enter INI_VERTICAL_GRID: setInterFDr=    T ; setCenterDr=    F
(PID.TID 0000.0001) %MON XC_max                       =   3.3550000000000E+02
(PID.TID 0000.0001) %MON XC_min                       =   3.3550000000000E+02
(PID.TID 0000.0001) %MON XC_mean                      =   3.3550000000000E+02
(PID.TID 0000.0001) %MON XC_sd                        =   0.0000000000000E+00
(PID.TID 0000.0001) %MON XG_max                       =   3.3500000000000E+02
(PID.TID 0000.0001) %MON XG_min                       =   3.3500000000000E+02
(PID.TID 0000.0001) %MON XG_mean                      =   3.3500000000000E+02
(PID.TID 0000.0001) %MON XG_sd                        =   0.0000000000000E+00
(PID.TID 0000.0001) %MON DXC_max                      =   1.0603184087720E+05
(PID.TID 0000.0001) %MON DXC_min                      =   1.0603184087720E+05
(PID.TID 0000.0001) %MON DXC_mean                     =   1.0603184087720E+05
(PID.TID 0000.0001) %MON DXC_sd                       =   0.0000000000000E+00
(PID.TID 0000.0001) %MON DXF_max                      =   1.0603184087720E+05
(PID.TID 0000.0001) %MON DXF_min                      =   1.0603184087720E+05
(PID.TID 0000.0001) %MON DXF_mean                     =   1.0603184087720E+05
(PID.TID 0000.0001) %MON DXF_sd                       =   0.0000000000000E+00
(PID.TID 0000.0001) %MON DXG_max                      =   1.0573606049669E+05
(PID.TID 0000.0001) %MON DXG_min                      =   1.0573606049669E+05
(PID.TID 0000.0001) %MON DXG_mean                     =   1.0573606049669E+05
(PID.TID 0000.0001) %MON DXG_sd                       =   0.0000000000000E+00
(PID.TID 0000.0001) %MON DXV_max                      =   1.0573606049669E+05
(PID.TID 0000.0001) %MON DXV_min                      =   1.0573606049669E+05
(PID.TID 0000.0001) %MON DXV_mean                     =   1.0573606049669E+05
(PID.TID 0000.0001) %MON DXV_sd                       =   0.0000000000000E+00
(PID.TID 0000.0001) %MON YC_max                       =  -1.7500000000000E+01
(PID.TID 0000.0001) %MON YC_min                       =  -1.7500000000000E+01
(PID.TID 0000.0001) %MON YC_mean                      =  -1.7500000000000E+01
(PID.TID 0000.0001) %MON YC_sd                        =   0.0000000000000E+00
(PID.TID 0000.0001) %MON YG_max                       =  -1.8000000000000E+01
(PID.TID 0000.0001) %MON YG_min                       =  -1.8000000000000E+01
(PID.TID 0000.0001) %MON YG_mean                      =  -1.8000000000000E+01
(PID.TID 0000.0001) %MON YG_sd                        =   0.0000000000000E+00
(PID.TID 0000.0001) %MON DYC_max                      =   1.1117747335204E+05
(PID.TID 0000.0001) %MON DYC_min                      =   1.1117747335204E+05
(PID.TID 0000.0001) %MON DYC_mean                     =   1.1117747335204E+05
(PID.TID 0000.0001) %MON DYC_sd                       =   0.0000000000000E+00
(PID.TID 0000.0001) %MON DYF_max                      =   1.1117747335204E+05
(PID.TID 0000.0001) %MON DYF_min                      =   1.1117747335204E+05
(PID.TID 0000.0001) %MON DYF_mean                     =   1.1117747335204E+05
(PID.TID 0000.0001) %MON DYF_sd                       =   0.0000000000000E+00
(PID.TID 0000.0001) %MON DYG_max                      =   1.1117747335204E+05
(PID.TID 0000.0001) %MON DYG_min                      =   1.1117747335204E+05
(PID.TID 0000.0001) %MON DYG_mean                     =   1.1117747335204E+05
(PID.TID 0000.0001) %MON DYG_sd                       =   0.0000000000000E+00
(PID.TID 0000.0001) %MON DYU_max                      =   1.1117747335204E+05
(PID.TID 0000.0001) %MON DYU_min                      =   1.1117747335204E+05
(PID.TID 0000.0001) %MON DYU_mean                     =   1.1117747335204E+05
(PID.TID 0000.0001) %MON DYU_sd                       =   0.0000000000000E+00
(PID.TID 0000.0001) %MON RA_max                       =   1.1788202541770E+10
(PID.TID 0000.0001) %MON RA_min                       =   1.1788202541770E+10
(PID.TID 0000.0001) %MON RA_mean                      =   1.1788202541770E+10
(PID.TID 0000.0001) %MON RA_sd                        =   0.0000000000000E+00
(PID.TID 0000.0001) %MON RAW_max                      =   1.1788202541770E+10
(PID.TID 0000.0001) %MON RAW_min                      =   1.1788202541770E+10
(PID.TID 0000.0001) %MON RAW_mean                     =   1.1788202541770E+10
(PID.TID 0000.0001) %MON RAW_sd                       =   0.0000000000000E+00
(PID.TID 0000.0001) %MON RAS_max                      =   1.1755318843774E+10
(PID.TID 0000.0001) %MON RAS_min                      =   1.1755318843774E+10
(PID.TID 0000.0001) %MON RAS_mean                     =   1.1755318843774E+10
(PID.TID 0000.0001) %MON RAS_sd                       =   0.0000000000000E+00
(PID.TID 0000.0001) %MON RAZ_max                      =   1.1755318843774E+10
(PID.TID 0000.0001) %MON RAZ_min                      =   1.1755318843774E+10
(PID.TID 0000.0001) %MON RAZ_mean                     =   1.1755318843774E+10
(PID.TID 0000.0001) %MON RAZ_sd                       =   0.0000000000000E+00
(PID.TID 0000.0001) %MON AngleCS_max                  =   1.0000000000000E+00
(PID.TID 0000.0001) %MON AngleCS_min                  =   1.0000000000000E+00
(PID.TID 0000.0001) %MON AngleCS_mean                 =   1.0000000000000E+00
(PID.TID 0000.0001) %MON AngleCS_sd                   =   0.0000000000000E+00
(PID.TID 0000.0001) %MON AngleSN_max                  =   0.0000000000000E+00
(PID.TID 0000.0001) %MON AngleSN_min                  =   0.0000000000000E+00
(PID.TID 0000.0001) %MON AngleSN_mean                 =   0.0000000000000E+00
(PID.TID 0000.0001) %MON AngleSN_sd                   =   0.0000000000000E+00
(PID.TID 0000.0001)  MDS_READ_FIELD: opening global file: ../input/input/bathyneg.bin
(PID.TID 0000.0001) // =======================================================
(PID.TID 0000.0001) // Field Model R_low (ini_masks_etc)
(PID.TID 0000.0001) // CMIN =         -3.495000000000000E+03
(PID.TID 0000.0001) // CMAX =         -3.495000000000000E+03
(PID.TID 0000.0001) // CINT =          0.000000000000000E+00
(PID.TID 0000.0001) // SYMBOLS (CMIN->CMAX): -abcdefghijklmnopqrstuvwxyz+
(PID.TID 0000.0001) //                  0.0: .
(PID.TID 0000.0001) // RANGE I (Lo:Hi:Step):(    -1:     3:     1)
(PID.TID 0000.0001) // RANGE J (Lo:Hi:Step):(     3:    -1:    -1)
(PID.TID 0000.0001) // RANGE K (Lo:Hi:Step):(   1:   1:   1)
(PID.TID 0000.0001) // =======================================================
(PID.TID 0000.0001) // =======================================================
(PID.TID 0000.0001) // END OF FIELD                                          =
(PID.TID 0000.0001) // =======================================================
(PID.TID 0000.0001) 
(PID.TID 0000.0001) // =======================================================
(PID.TID 0000.0001) // Field Model Ro_surf (ini_masks_etc)
(PID.TID 0000.0001) // CMIN =          1.000000000000000E+32
(PID.TID 0000.0001) // CMAX =         -1.000000000000000E+32
(PID.TID 0000.0001) // CINT =          0.000000000000000E+00
(PID.TID 0000.0001) // SYMBOLS (CMIN->CMAX): -abcdefghijklmnopqrstuvwxyz+
(PID.TID 0000.0001) //                  0.0: .
(PID.TID 0000.0001) // RANGE I (Lo:Hi:Step):(    -1:     3:     1)
(PID.TID 0000.0001) // RANGE J (Lo:Hi:Step):(     3:    -1:    -1)
(PID.TID 0000.0001) // RANGE K (Lo:Hi:Step):(   1:   1:   1)
(PID.TID 0000.0001) // =======================================================
(PID.TID 0000.0001) // =======================================================
(PID.TID 0000.0001) // END OF FIELD                                          =
(PID.TID 0000.0001) // =======================================================
(PID.TID 0000.0001) 
(PID.TID 0000.0001) // =======================================================
(PID.TID 0000.0001) // Field hFacC at iteration          0
(PID.TID 0000.0001) // CMIN =          1.000000000000000E+00
(PID.TID 0000.0001) // CMAX =          1.000000000000000E+00
(PID.TID 0000.0001) // CINT =          0.000000000000000E+00
(PID.TID 0000.0001) // SYMBOLS (CMIN->CMAX): -abcdefghijklmnopqrstuvwxyz+
(PID.TID 0000.0001) //                  0.0: .
(PID.TID 0000.0001) // RANGE I (Lo:Hi:Step):(    -1:     3:     1)
(PID.TID 0000.0001) // RANGE J (Lo:Hi:Step):(     3:    -1:    -1)
(PID.TID 0000.0001) // RANGE K (Lo:Hi:Step):(   1:   1:   1)
(PID.TID 0000.0001) // =======================================================
(PID.TID 0000.0001) // =======================================================
(PID.TID 0000.0001) // END OF FIELD                                          =
(PID.TID 0000.0001) // =======================================================
(PID.TID 0000.0001) 
(PID.TID 0000.0001) // =======================================================
(PID.TID 0000.0001) // Field hFacW at iteration          0
(PID.TID 0000.0001) // CMIN =          1.000000000000000E+00
(PID.TID 0000.0001) // CMAX =          1.000000000000000E+00
(PID.TID 0000.0001) // CINT =          0.000000000000000E+00
(PID.TID 0000.0001) // SYMBOLS (CMIN->CMAX): -abcdefghijklmnopqrstuvwxyz+
(PID.TID 0000.0001) //                  0.0: .
(PID.TID 0000.0001) // RANGE I (Lo:Hi:Step):(    -1:     3:     1)
(PID.TID 0000.0001) // RANGE J (Lo:Hi:Step):(     3:    -1:    -1)
(PID.TID 0000.0001) // RANGE K (Lo:Hi:Step):(   1:   1:   1)
(PID.TID 0000.0001) // =======================================================
(PID.TID 0000.0001) // =======================================================
(PID.TID 0000.0001) // END OF FIELD                                          =
(PID.TID 0000.0001) // =======================================================
(PID.TID 0000.0001) 
(PID.TID 0000.0001) // =======================================================
(PID.TID 0000.0001) // Field hFacS at iteration          0
(PID.TID 0000.0001) // CMIN =          1.000000000000000E+00
(PID.TID 0000.0001) // CMAX =          1.000000000000000E+00
(PID.TID 0000.0001) // CINT =          0.000000000000000E+00
(PID.TID 0000.0001) // SYMBOLS (CMIN->CMAX): -abcdefghijklmnopqrstuvwxyz+
(PID.TID 0000.0001) //                  0.0: .
(PID.TID 0000.0001) // RANGE I (Lo:Hi:Step):(    -1:     3:     1)
(PID.TID 0000.0001) // RANGE J (Lo:Hi:Step):(     3:    -1:    -1)
(PID.TID 0000.0001) // RANGE K (Lo:Hi:Step):(   1:   1:   1)
(PID.TID 0000.0001) // =======================================================
(PID.TID 0000.0001) // =======================================================
(PID.TID 0000.0001) // END OF FIELD                                          =
(PID.TID 0000.0001) // =======================================================
(PID.TID 0000.0001) 
(PID.TID 0000.0001) GAD_INIT_FIXED: GAD_OlMinSize=  2  0  1
(PID.TID 0000.0001) 
(PID.TID 0000.0001) // ===================================
(PID.TID 0000.0001) // GAD parameters :
(PID.TID 0000.0001) // ===================================
(PID.TID 0000.0001) tempAdvScheme =   /* Temp. Horiz.Advection scheme selector */
(PID.TID 0000.0001)                       3
(PID.TID 0000.0001)     ;
(PID.TID 0000.0001) tempVertAdvScheme =   /* Temp. Vert. Advection scheme selector */
(PID.TID 0000.0001)                       3
(PID.TID 0000.0001)     ;
(PID.TID 0000.0001) tempMultiDimAdvec =   /* use Muti-Dim Advec method for Temp */
(PID.TID 0000.0001)                   F
(PID.TID 0000.0001)     ;
(PID.TID 0000.0001) tempSOM_Advection = /* use 2nd Order Moment Advection for Temp */
(PID.TID 0000.0001)                   F
(PID.TID 0000.0001)     ;
(PID.TID 0000.0001) AdamsBashforthGt = /* apply Adams-Bashforth extrapolation on Gt */
(PID.TID 0000.0001)                   T
(PID.TID 0000.0001)     ;
(PID.TID 0000.0001) AdamsBashforth_T = /* apply Adams-Bashforth extrapolation on Temp */
(PID.TID 0000.0001)                   F
(PID.TID 0000.0001)     ;
(PID.TID 0000.0001) saltAdvScheme =   /* Salt. Horiz.advection scheme selector */
(PID.TID 0000.0001)                       3
(PID.TID 0000.0001)     ;
(PID.TID 0000.0001) saltVertAdvScheme =   /* Salt. Vert. Advection scheme selector */
(PID.TID 0000.0001)                       3
(PID.TID 0000.0001)     ;
(PID.TID 0000.0001) saltMultiDimAdvec =   /* use Muti-Dim Advec method for Salt */
(PID.TID 0000.0001)                   F
(PID.TID 0000.0001)     ;
(PID.TID 0000.0001) saltSOM_Advection = /* use 2nd Order Moment Advection for Salt */
(PID.TID 0000.0001)                   F
(PID.TID 0000.0001)     ;
(PID.TID 0000.0001) AdamsBashforthGs = /* apply Adams-Bashforth extrapolation on Gs */
(PID.TID 0000.0001)                   F
(PID.TID 0000.0001)     ;
(PID.TID 0000.0001) AdamsBashforth_S = /* apply Adams-Bashforth extrapolation on Salt */
(PID.TID 0000.0001)                   F
(PID.TID 0000.0001)     ;
(PID.TID 0000.0001) // ===================================
(PID.TID 0000.0001) // =======================================================
(PID.TID 0000.0001) // Quota loading parameters
(PID.TID 0000.0001) // =======================================================
(PID.TID 0000.0001) %MON fCori_max                    =  -4.3855676645210E-05
(PID.TID 0000.0001) %MON fCori_min                    =  -4.3855676645210E-05
(PID.TID 0000.0001) %MON fCori_mean                   =  -4.3855676645210E-05
(PID.TID 0000.0001) %MON fCori_sd                     =   0.0000000000000E+00
(PID.TID 0000.0001) %MON fCoriG_max                   =  -4.5067801836625E-05
(PID.TID 0000.0001) %MON fCoriG_min                   =  -4.5067801836625E-05
(PID.TID 0000.0001) %MON fCoriG_mean                  =  -4.5067801836625E-05
(PID.TID 0000.0001) %MON fCoriG_sd                    =   0.0000000000000E+00
(PID.TID 0000.0001) %MON fCoriCos_max                 =   1.3909243610207E-04
(PID.TID 0000.0001) %MON fCoriCos_min                 =   1.3909243610207E-04
(PID.TID 0000.0001) %MON fCoriCos_mean                =   1.3909243610207E-04
(PID.TID 0000.0001) %MON fCoriCos_sd                  =   0.0000000000000E+00
(PID.TID 0000.0001) INI_CG2D: CG2D normalisation factor =  2.7288038648017932E-04
(PID.TID 0000.0001) 
(PID.TID 0000.0001) // =======================================================
(PID.TID 0000.0001) // Model configuration
(PID.TID 0000.0001) // =======================================================
(PID.TID 0000.0001) //
(PID.TID 0000.0001) // "Physical" paramters ( PARM01 in namelist )
(PID.TID 0000.0001) //
(PID.TID 0000.0001) buoyancyRelation = /* Type of relation to get Buoyancy */
(PID.TID 0000.0001)               'OCEANIC'
(PID.TID 0000.0001)     ;
(PID.TID 0000.0001) fluidIsAir   =  /* fluid major constituent is Air */
(PID.TID 0000.0001)                   F
(PID.TID 0000.0001)     ;
(PID.TID 0000.0001) fluidIsWater =  /* fluid major constituent is Water */
(PID.TID 0000.0001)                   T
(PID.TID 0000.0001)     ;
(PID.TID 0000.0001) usingPCoords =  /* use p (or p*) vertical coordinate */
(PID.TID 0000.0001)                   F
(PID.TID 0000.0001)     ;
(PID.TID 0000.0001) usingZCoords =  /* use z (or z*) vertical coordinate */
(PID.TID 0000.0001)                   T
(PID.TID 0000.0001)     ;
(PID.TID 0000.0001) tRef =   /* Reference temperature profile ( oC or K ) */
(PID.TID 0000.0001)                 2.650000000000000E+01,      /* K =  1 */
(PID.TID 0000.0001)                 2.610000000000000E+01,      /* K =  2 */
(PID.TID 0000.0001)                 2.600000000000000E+01,      /* K =  3 */
(PID.TID 0000.0001)                 2.550000000000000E+01,      /* K =  4 */
(PID.TID 0000.0001)                 2.540000000000000E+01,      /* K =  5 */
(PID.TID 0000.0001)                 2.490000000000000E+01,      /* K =  6 */
(PID.TID 0000.0001)                 2.450000000000000E+01,      /* K =  7 */
(PID.TID 0000.0001)                 2.400000000000000E+01,      /* K =  8 */
(PID.TID 0000.0001)                 2.370000000000000E+01,      /* K =  9 */
(PID.TID 0000.0001)                 2.330000000000000E+01,      /* K = 10 */
(PID.TID 0000.0001)                 2.310000000000000E+01,      /* K = 11 */
(PID.TID 0000.0001)                 2.280000000000000E+01,      /* K = 12 */
(PID.TID 0000.0001)                 2.250000000000000E+01,      /* K = 13 */
(PID.TID 0000.0001)                 2.210000000000000E+01,      /* K = 14 */
(PID.TID 0000.0001)                 2.160000000000000E+01,      /* K = 15 */
(PID.TID 0000.0001)                 2.060000000000000E+01,      /* K = 16 */
(PID.TID 0000.0001)                 1.950000000000000E+01,      /* K = 17 */
(PID.TID 0000.0001)                 1.840000000000000E+01,      /* K = 18 */
(PID.TID 0000.0001)                 1.730000000000000E+01,      /* K = 19 */
(PID.TID 0000.0001)                 1.660000000000000E+01,      /* K = 20 */
(PID.TID 0000.0001)                 1.550000000000000E+01,      /* K = 21 */
(PID.TID 0000.0001)                 1.460000000000000E+01,      /* K = 22 */
(PID.TID 0000.0001)                 1.380000000000000E+01,      /* K = 23 */
(PID.TID 0000.0001)                 1.310000000000000E+01,      /* K = 24 */
(PID.TID 0000.0001)                 1.160000000000000E+01,      /* K = 25 */
(PID.TID 0000.0001)                 1.010000000000000E+01,      /* K = 26 */
(PID.TID 0000.0001)                 7.700000000000000E+00,      /* K = 27 */
(PID.TID 0000.0001)                 5.300000000000000E+00,      /* K = 28 */
(PID.TID 0000.0001)                 4.100000000000000E+00,      /* K = 29 */
(PID.TID 0000.0001)     2 @  3.700000000000000E+00,             /* K = 30: 31 */
(PID.TID 0000.0001)                 3.400000000000000E+00,      /* K = 32 */
(PID.TID 0000.0001)                 3.000000000000000E+00,      /* K = 33 */
(PID.TID 0000.0001)                 2.800000000000000E+00,      /* K = 34 */
(PID.TID 0000.0001)                 2.600000000000000E+00       /* K = 35 */
(PID.TID 0000.0001)     ;
(PID.TID 0000.0001) sRef =   /* Reference salinity profile ( psu ) */
(PID.TID 0000.0001)    35 @  3.500000000000000E+01              /* K =  1: 35 */
(PID.TID 0000.0001)     ;
(PID.TID 0000.0001) viscAh  =   /* Lateral eddy viscosity ( m^2/s ) */
(PID.TID 0000.0001)                 0.000000000000000E+00
(PID.TID 0000.0001)     ;
(PID.TID 0000.0001) viscAhMax = /* Maximum lateral eddy viscosity ( m^2/s ) */
(PID.TID 0000.0001)                 1.000000000000000E+21
(PID.TID 0000.0001)     ;
(PID.TID 0000.0001) viscAhGrid = /* Grid dependent lateral eddy viscosity ( non-dim. ) */
(PID.TID 0000.0001)                 0.000000000000000E+00
(PID.TID 0000.0001)     ;
(PID.TID 0000.0001) useFullLeith = /* Use Full Form of Leith Viscosity on/off flag*/
(PID.TID 0000.0001)                   F
(PID.TID 0000.0001)     ;
(PID.TID 0000.0001) useStrainTensionVisc= /* Use StrainTension Form of Viscous Operator flag*/
(PID.TID 0000.0001)                   F
(PID.TID 0000.0001)     ;
(PID.TID 0000.0001) useAreaViscLength = /* Use area for visc length instead of geom. mean*/
(PID.TID 0000.0001)                   F
(PID.TID 0000.0001)     ;
(PID.TID 0000.0001) viscC2leith = /* Leith harmonic visc. factor (on grad(vort),non-dim.) */
(PID.TID 0000.0001)                 0.000000000000000E+00
(PID.TID 0000.0001)     ;
(PID.TID 0000.0001) viscC2leithD = /* Leith harmonic viscosity factor (on grad(div),non-dim.)*/
(PID.TID 0000.0001)                 0.000000000000000E+00
(PID.TID 0000.0001)     ;
(PID.TID 0000.0001) viscC2smag = /* Smagorinsky harmonic viscosity factor (non-dim.) */
(PID.TID 0000.0001)                 0.000000000000000E+00
(PID.TID 0000.0001)     ;
(PID.TID 0000.0001) viscA4  =   /* Lateral biharmonic viscosity ( m^4/s ) */
(PID.TID 0000.0001)                 0.000000000000000E+00
(PID.TID 0000.0001)     ;
(PID.TID 0000.0001) viscA4Max = /* Maximum biharmonic viscosity ( m^2/s ) */
(PID.TID 0000.0001)                 1.000000000000000E+21
(PID.TID 0000.0001)     ;
(PID.TID 0000.0001) viscA4Grid = /* Grid dependent biharmonic viscosity ( non-dim. ) */
(PID.TID 0000.0001)                 0.000000000000000E+00
(PID.TID 0000.0001)     ;
(PID.TID 0000.0001) viscC4leith = /* Leith biharm viscosity factor (on grad(vort), non-dim.)*/
(PID.TID 0000.0001)                 0.000000000000000E+00
(PID.TID 0000.0001)     ;
(PID.TID 0000.0001) viscC4leithD = /* Leith biharm viscosity factor (on grad(div), non-dim.) */
(PID.TID 0000.0001)                 0.000000000000000E+00
(PID.TID 0000.0001)     ;
(PID.TID 0000.0001) viscC4Smag = /* Smagorinsky biharm viscosity factor (non-dim) */
(PID.TID 0000.0001)                 0.000000000000000E+00
(PID.TID 0000.0001)     ;
(PID.TID 0000.0001) no_slip_sides =  /* Viscous BCs: No-slip sides */
(PID.TID 0000.0001)                   F
(PID.TID 0000.0001)     ;
(PID.TID 0000.0001) sideDragFactor = /* side-drag scaling factor (non-dim) */
(PID.TID 0000.0001)                 2.000000000000000E+00
(PID.TID 0000.0001)     ;
(PID.TID 0000.0001) viscArNr = /* vertical profile of vertical viscosity ( m^2/s )*/
(PID.TID 0000.0001)    35 @  0.000000000000000E+00              /* K =  1: 35 */
(PID.TID 0000.0001)     ;
(PID.TID 0000.0001) no_slip_bottom =  /* Viscous BCs: No-slip bottom */
(PID.TID 0000.0001)                   T
(PID.TID 0000.0001)     ;
(PID.TID 0000.0001) bottomDragLinear = /* linear bottom-drag coefficient ( m/s ) */
(PID.TID 0000.0001)                 0.000000000000000E+00
(PID.TID 0000.0001)     ;
(PID.TID 0000.0001) bottomDragQuadratic = /* quadratic bottom-drag coefficient (-) */
(PID.TID 0000.0001)                 0.000000000000000E+00
(PID.TID 0000.0001)     ;
(PID.TID 0000.0001) diffKhT =   /* Laplacian diffusion of heat laterally ( m^2/s ) */
(PID.TID 0000.0001)                 1.000000000000000E+02
(PID.TID 0000.0001)     ;
(PID.TID 0000.0001) diffK4T =   /* Biharmonic diffusion of heat laterally ( m^4/s ) */
(PID.TID 0000.0001)                 0.000000000000000E+00
(PID.TID 0000.0001)     ;
(PID.TID 0000.0001) diffKhS =   /* Laplacian diffusion of salt laterally ( m^2/s ) */
(PID.TID 0000.0001)                 0.000000000000000E+00
(PID.TID 0000.0001)     ;
(PID.TID 0000.0001) diffK4S =   /* Biharmonic diffusion of salt laterally ( m^4/s ) */
(PID.TID 0000.0001)                 0.000000000000000E+00
(PID.TID 0000.0001)     ;
(PID.TID 0000.0001) diffKrNrT = /* vertical profile of vertical diffusion of Temp ( m^2/s )*/
(PID.TID 0000.0001)    35 @  1.000000000000000E-04              /* K =  1: 35 */
(PID.TID 0000.0001)     ;
(PID.TID 0000.0001) diffKrNrS = /* vertical profile of vertical diffusion of Salt ( m^2/s )*/
(PID.TID 0000.0001)    35 @  0.000000000000000E+00              /* K =  1: 35 */
(PID.TID 0000.0001)     ;
(PID.TID 0000.0001) diffKrBL79surf = /* Surface diffusion for Bryan and Lewis 79 ( m^2/s ) */
(PID.TID 0000.0001)                 0.000000000000000E+00
(PID.TID 0000.0001)     ;
(PID.TID 0000.0001) diffKrBL79deep = /* Deep diffusion for Bryan and Lewis 1979 ( m^2/s ) */
(PID.TID 0000.0001)                 0.000000000000000E+00
(PID.TID 0000.0001)     ;
(PID.TID 0000.0001) diffKrBL79scl = /* Depth scale for Bryan and Lewis 1979 ( m ) */
(PID.TID 0000.0001)                 2.000000000000000E+02
(PID.TID 0000.0001)     ;
(PID.TID 0000.0001) diffKrBL79Ho = /* Turning depth for Bryan and Lewis 1979 ( m ) */
(PID.TID 0000.0001)                -2.000000000000000E+03
(PID.TID 0000.0001)     ;
(PID.TID 0000.0001) ivdc_kappa = /* Implicit Vertical Diffusivity for Convection ( m^2/s) */
(PID.TID 0000.0001)                 0.000000000000000E+00
(PID.TID 0000.0001)     ;
(PID.TID 0000.0001) hMixCriteria=  /* Criteria for mixed-layer diagnostic */
(PID.TID 0000.0001)                -8.000000000000000E-01
(PID.TID 0000.0001)     ;
(PID.TID 0000.0001) dRhoSmall =  /* Parameter for mixed-layer diagnostic */
(PID.TID 0000.0001)                 1.000000000000000E-06
(PID.TID 0000.0001)     ;
(PID.TID 0000.0001) hMixSmooth=  /* Smoothing parameter for mixed-layer diagnostic */
(PID.TID 0000.0001)                 0.000000000000000E+00
(PID.TID 0000.0001)     ;
(PID.TID 0000.0001) eosType =  /* Type of Equation of State */
(PID.TID 0000.0001)               'JMD95Z'
(PID.TID 0000.0001)     ;
(PID.TID 0000.0001) celsius2K = /* 0 degree Celsius converted to Kelvin ( K ) */
(PID.TID 0000.0001)                 2.731500000000000E+02
(PID.TID 0000.0001)     ;
(PID.TID 0000.0001) rhoConst  = /* Reference density (Boussinesq)  ( kg/m^3 ) */
(PID.TID 0000.0001)                 9.998000000000000E+02
(PID.TID 0000.0001)     ;
(PID.TID 0000.0001) rhoFacC = /* normalized Reference density @ cell-Center (-) */
(PID.TID 0000.0001)    35 @  1.000000000000000E+00              /* K =  1: 35 */
(PID.TID 0000.0001)     ;
(PID.TID 0000.0001) rhoFacF = /* normalized Reference density @ W-Interface (-) */
(PID.TID 0000.0001)    36 @  1.000000000000000E+00              /* K =  1: 36 */
(PID.TID 0000.0001)     ;
(PID.TID 0000.0001) rhoConstFresh = /* Fresh-water reference density ( kg/m^3 ) */
(PID.TID 0000.0001)                 9.998000000000000E+02
(PID.TID 0000.0001)     ;
(PID.TID 0000.0001) gravity =   /* Gravitational acceleration ( m/s^2 ) */
(PID.TID 0000.0001)                 9.810000000000000E+00
(PID.TID 0000.0001)     ;
(PID.TID 0000.0001) gBaro =   /* Barotropic gravity ( m/s^2 ) */
(PID.TID 0000.0001)                 9.810000000000000E+00
(PID.TID 0000.0001)     ;
(PID.TID 0000.0001) rotationPeriod =   /* Rotation Period ( s ) */
(PID.TID 0000.0001)                 8.616400000000000E+04
(PID.TID 0000.0001)     ;
(PID.TID 0000.0001) omega =   /* Angular velocity ( rad/s ) */
(PID.TID 0000.0001)                 7.292123516990375E-05
(PID.TID 0000.0001)     ;
(PID.TID 0000.0001) f0 =   /* Reference coriolis parameter ( 1/s ) */
(PID.TID 0000.0001)                 1.000000000000000E-04
(PID.TID 0000.0001)     ;
(PID.TID 0000.0001) beta =   /* Beta ( 1/(m.s) ) */
(PID.TID 0000.0001)                 9.999999999999999E-12
(PID.TID 0000.0001)     ;
(PID.TID 0000.0001) fPrime =   /* Second coriolis parameter ( 1/s ) */
(PID.TID 0000.0001)                 0.000000000000000E+00
(PID.TID 0000.0001)     ;
(PID.TID 0000.0001) rigidLid =   /* Rigid lid on/off flag */
(PID.TID 0000.0001)                   T
(PID.TID 0000.0001)     ;
(PID.TID 0000.0001) implicitFreeSurface =   /* Implicit free surface on/off flag */
(PID.TID 0000.0001)                   F
(PID.TID 0000.0001)     ;
(PID.TID 0000.0001) freeSurfFac =   /* Implicit free surface factor */
(PID.TID 0000.0001)                 0.000000000000000E+00
(PID.TID 0000.0001)     ;
(PID.TID 0000.0001) implicSurfPress =  /* Surface Pressure implicit factor (0-1)*/
(PID.TID 0000.0001)                 1.000000000000000E+00
(PID.TID 0000.0001)     ;
(PID.TID 0000.0001) implicDiv2Dflow =  /* Barot. Flow Div. implicit factor (0-1)*/
(PID.TID 0000.0001)                 1.000000000000000E+00
(PID.TID 0000.0001)     ;
(PID.TID 0000.0001) uniformLin_PhiSurf = /* use uniform Bo_surf on/off flag*/
(PID.TID 0000.0001)                   T
(PID.TID 0000.0001)     ;
(PID.TID 0000.0001) uniformFreeSurfLev = /* free-surface level-index is uniform */
(PID.TID 0000.0001)                   T
(PID.TID 0000.0001)     ;
(PID.TID 0000.0001) hFacMin =   /* minimum partial cell factor (hFac) */
(PID.TID 0000.0001)                 1.000000000000000E+00
(PID.TID 0000.0001)     ;
(PID.TID 0000.0001) hFacMinDr = /* minimum partial cell thickness ( m) */
(PID.TID 0000.0001)                 1.000000000000000E+00
(PID.TID 0000.0001)     ;
(PID.TID 0000.0001) exactConserv =  /* Exact Volume Conservation on/off flag*/
(PID.TID 0000.0001)                   F
(PID.TID 0000.0001)     ;
(PID.TID 0000.0001) linFSConserveTr = /* Tracer correction for Lin Free Surface on/off flag*/
(PID.TID 0000.0001)                   F
(PID.TID 0000.0001)     ;
(PID.TID 0000.0001) nonlinFreeSurf = /* Non-linear Free Surf. options (-1,0,1,2,3)*/
(PID.TID 0000.0001)                       0
(PID.TID 0000.0001)      -1,0= Off ; 1,2,3= On, 2=+rescale gU,gV, 3=+update cg2d solv.
(PID.TID 0000.0001)     ;
(PID.TID 0000.0001) hFacInf =   /* lower threshold for hFac (nonlinFreeSurf only)*/
(PID.TID 0000.0001)                 2.000000000000000E-01
(PID.TID 0000.0001)     ;
(PID.TID 0000.0001) hFacSup =   /* upper threshold for hFac (nonlinFreeSurf only)*/
(PID.TID 0000.0001)                 2.000000000000000E+00
(PID.TID 0000.0001)     ;
(PID.TID 0000.0001) select_rStar = /* r* Vertical coord. options (=0 r coord.; >0 uses r*)*/
(PID.TID 0000.0001)                       0
(PID.TID 0000.0001)     ;
(PID.TID 0000.0001) useRealFreshWaterFlux = /* Real Fresh Water Flux on/off flag*/
(PID.TID 0000.0001)                   F
(PID.TID 0000.0001)     ;
(PID.TID 0000.0001) temp_EvPrRn = /* Temp. of Evap/Prec/R (UNSET=use local T)(oC)*/
(PID.TID 0000.0001)                 1.234567000000000E+05
(PID.TID 0000.0001)     ;
(PID.TID 0000.0001) salt_EvPrRn = /* Salin. of Evap/Prec/R (UNSET=use local S)(psu)*/
(PID.TID 0000.0001)                 0.000000000000000E+00
(PID.TID 0000.0001)     ;
(PID.TID 0000.0001) selectAddFluid = /* option for mass source/sink of fluid (=0: off) */
(PID.TID 0000.0001)                       0
(PID.TID 0000.0001)     ;
(PID.TID 0000.0001) temp_addMass = /* Temp. of addMass array (UNSET=use local T)(oC)*/
(PID.TID 0000.0001)                 1.234567000000000E+05
(PID.TID 0000.0001)     ;
(PID.TID 0000.0001) salt_addMass = /* Salin. of addMass array (UNSET=use local S)(psu)*/
(PID.TID 0000.0001)                 0.000000000000000E+00
(PID.TID 0000.0001)     ;
(PID.TID 0000.0001) convertFW2Salt = /* convert F.W. Flux to Salt Flux (-1=use local S)(psu)*/
(PID.TID 0000.0001)                 3.500000000000000E+01
(PID.TID 0000.0001)     ;
(PID.TID 0000.0001) use3Dsolver = /* use 3-D pressure solver on/off flag */
(PID.TID 0000.0001)                   F
(PID.TID 0000.0001)     ;
(PID.TID 0000.0001) nonHydrostatic =  /* Non-Hydrostatic on/off flag */
(PID.TID 0000.0001)                   F
(PID.TID 0000.0001)     ;
(PID.TID 0000.0001) nh_Am2 = /* Non-Hydrostatic terms scaling factor */
(PID.TID 0000.0001)                 1.000000000000000E+00
(PID.TID 0000.0001)     ;
(PID.TID 0000.0001) implicitNHPress = /* Non-Hyd Pressure implicit factor (0-1)*/
(PID.TID 0000.0001)                 1.000000000000000E+00
(PID.TID 0000.0001)     ;
(PID.TID 0000.0001) selectNHfreeSurf = /* Non-Hyd (free-)Surface option */
(PID.TID 0000.0001)                       0
(PID.TID 0000.0001)     ;
(PID.TID 0000.0001) quasiHydrostatic = /* Quasi-Hydrostatic on/off flag */
(PID.TID 0000.0001)                   F
(PID.TID 0000.0001)     ;
(PID.TID 0000.0001) calc_wVelocity = /* vertical velocity calculation on/off flag */
(PID.TID 0000.0001)                   F
(PID.TID 0000.0001)     ;
(PID.TID 0000.0001) momStepping =  /* Momentum equation on/off flag */
(PID.TID 0000.0001)                   F
(PID.TID 0000.0001)     ;
(PID.TID 0000.0001) vectorInvariantMomentum= /* Vector-Invariant Momentum on/off */
(PID.TID 0000.0001)                   F
(PID.TID 0000.0001)     ;
(PID.TID 0000.0001) momAdvection =  /* Momentum advection on/off flag */
(PID.TID 0000.0001)                   F
(PID.TID 0000.0001)     ;
(PID.TID 0000.0001) momViscosity =  /* Momentum viscosity on/off flag */
(PID.TID 0000.0001)                   F
(PID.TID 0000.0001)     ;
(PID.TID 0000.0001) momImplVertAdv= /* Momentum implicit vert. advection on/off*/
(PID.TID 0000.0001)                   F
(PID.TID 0000.0001)     ;
(PID.TID 0000.0001) implicitViscosity = /* Implicit viscosity on/off flag */
(PID.TID 0000.0001)                   F
(PID.TID 0000.0001)     ;
(PID.TID 0000.0001) metricTerms =  /* metric-Terms on/off flag */
(PID.TID 0000.0001)                   T
(PID.TID 0000.0001)     ;
(PID.TID 0000.0001) useNHMTerms = /* Non-Hydrostatic Metric-Terms on/off */
(PID.TID 0000.0001)                   F
(PID.TID 0000.0001)     ;
(PID.TID 0000.0001) selectCoriMap = /* Coriolis Map options (0,1,2,3)*/
(PID.TID 0000.0001)                       2
(PID.TID 0000.0001)     0= f-Plane ; 1= Beta-Plane ; 2= Spherical ; 3= read from file
(PID.TID 0000.0001)     ;
(PID.TID 0000.0001) use3dCoriolis = /* 3-D Coriolis on/off flag */
(PID.TID 0000.0001)                   F
(PID.TID 0000.0001)     ;
(PID.TID 0000.0001) useCoriolis =  /* Coriolis on/off flag */
(PID.TID 0000.0001)                   F
(PID.TID 0000.0001)     ;
(PID.TID 0000.0001) useCDscheme =  /* CD scheme on/off flag */
(PID.TID 0000.0001)                   F
(PID.TID 0000.0001)     ;
(PID.TID 0000.0001) useEnergyConservingCoriolis= /* Flx-Form Coriolis scheme flag */
(PID.TID 0000.0001)                   F
(PID.TID 0000.0001)     ;
(PID.TID 0000.0001) useJamartWetPoints= /* Coriolis WetPoints method flag */
(PID.TID 0000.0001)                   F
(PID.TID 0000.0001)     ;
(PID.TID 0000.0001) useJamartMomAdv= /* V.I Non-linear terms Jamart flag */
(PID.TID 0000.0001)                   F
(PID.TID 0000.0001)     ;
(PID.TID 0000.0001) useAbsVorticity= /* V.I Works with f+zeta in Coriolis */
(PID.TID 0000.0001)                   F
(PID.TID 0000.0001)     ;
(PID.TID 0000.0001) selectVortScheme= /* V.I Scheme selector for Vorticity-Term */
(PID.TID 0000.0001)               123456789
(PID.TID 0000.0001)    = 0 : enstrophy (Shallow-Water Eq.) conserving scheme by Sadourny, JAS 75
(PID.TID 0000.0001)    = 1 : same as 0 with modified hFac
(PID.TID 0000.0001)    = 2 : energy conserving scheme (used by Sadourny in JAS 75 paper)
(PID.TID 0000.0001)    = 3 : energy (general) and enstrophy (2D, nonDiv.) conserving scheme
(PID.TID 0000.0001)          from Sadourny (Burridge & Haseler, ECMWF Rep.4, 1977)
(PID.TID 0000.0001)     ;
(PID.TID 0000.0001) upwindVorticity= /* V.I Upwind bias vorticity flag */
(PID.TID 0000.0001)                   F
(PID.TID 0000.0001)     ;
(PID.TID 0000.0001) highOrderVorticity= /* V.I High order vort. advect. flag */
(PID.TID 0000.0001)                   F
(PID.TID 0000.0001)     ;
(PID.TID 0000.0001) upwindShear= /* V.I Upwind vertical Shear advection flag */
(PID.TID 0000.0001)                   F
(PID.TID 0000.0001)     ;
(PID.TID 0000.0001) selectKEscheme= /* V.I Kinetic Energy scheme selector */
(PID.TID 0000.0001)                       0
(PID.TID 0000.0001)     ;
(PID.TID 0000.0001) momForcing =  /* Momentum forcing on/off flag */
(PID.TID 0000.0001)                   F
(PID.TID 0000.0001)     ;
(PID.TID 0000.0001) momPressureForcing =  /* Momentum pressure term on/off flag */
(PID.TID 0000.0001)                   F
(PID.TID 0000.0001)     ;
(PID.TID 0000.0001) implicitIntGravWave= /* Implicit Internal Gravity Wave flag */
(PID.TID 0000.0001)                   F
(PID.TID 0000.0001)     ;
(PID.TID 0000.0001) staggerTimeStep =    /* Stagger time stepping on/off flag */
(PID.TID 0000.0001)                   F
(PID.TID 0000.0001)     ;
(PID.TID 0000.0001) doResetHFactors = /* reset thickness factors @ each time-step */
(PID.TID 0000.0001)                   F
(PID.TID 0000.0001)     ;
(PID.TID 0000.0001) multiDimAdvection =  /* enable/disable Multi-Dim Advection */
(PID.TID 0000.0001)                   T
(PID.TID 0000.0001)     ;
(PID.TID 0000.0001) useMultiDimAdvec =   /* Multi-Dim Advection is/is-not used */
(PID.TID 0000.0001)                   T
(PID.TID 0000.0001)     ;
(PID.TID 0000.0001) implicitDiffusion = /* Implicit Diffusion on/off flag */
(PID.TID 0000.0001)                   T
(PID.TID 0000.0001)     ;
(PID.TID 0000.0001) tempStepping =  /* Temperature equation on/off flag */
(PID.TID 0000.0001)                   T
(PID.TID 0000.0001)     ;
(PID.TID 0000.0001) tempAdvection = /* Temperature advection on/off flag */
(PID.TID 0000.0001)                   T
(PID.TID 0000.0001)     ;
(PID.TID 0000.0001) tempImplVertAdv = /* Temp. implicit vert. advection on/off */
(PID.TID 0000.0001)                   F
(PID.TID 0000.0001)     ;
(PID.TID 0000.0001) tempForcing  =  /* Temperature forcing on/off flag */
(PID.TID 0000.0001)                   T
(PID.TID 0000.0001)     ;
(PID.TID 0000.0001) doThetaClimRelax = /* apply SST relaxation on/off flag */
(PID.TID 0000.0001)                   T
(PID.TID 0000.0001)     ;
(PID.TID 0000.0001) tempIsActiveTr = /* Temp. is a dynamically Active Tracer */
(PID.TID 0000.0001)                   F
(PID.TID 0000.0001)     ;
(PID.TID 0000.0001) saltStepping =  /* Salinity equation on/off flag */
(PID.TID 0000.0001)                   F
(PID.TID 0000.0001)     ;
(PID.TID 0000.0001) saltAdvection = /* Salinity advection on/off flag */
(PID.TID 0000.0001)                   F
(PID.TID 0000.0001)     ;
(PID.TID 0000.0001) saltImplVertAdv = /* Sali. implicit vert. advection on/off */
(PID.TID 0000.0001)                   F
(PID.TID 0000.0001)     ;
(PID.TID 0000.0001) saltForcing  =  /* Salinity forcing on/off flag */
(PID.TID 0000.0001)                   F
(PID.TID 0000.0001)     ;
(PID.TID 0000.0001) doSaltClimRelax = /* apply SSS relaxation on/off flag */
(PID.TID 0000.0001)                   F
(PID.TID 0000.0001)     ;
(PID.TID 0000.0001) saltIsActiveTr = /* Salt  is a dynamically Active Tracer */
(PID.TID 0000.0001)                   F
(PID.TID 0000.0001)     ;
(PID.TID 0000.0001)  readBinaryPrec = /* Precision used for reading binary files */
(PID.TID 0000.0001)                      32
(PID.TID 0000.0001)     ;
(PID.TID 0000.0001) writeBinaryPrec = /* Precision used for writing binary files */
(PID.TID 0000.0001)                      32
(PID.TID 0000.0001)     ;
(PID.TID 0000.0001)  globalFiles = /* write "global" (=not per tile) files */
(PID.TID 0000.0001)                   F
(PID.TID 0000.0001)     ;
(PID.TID 0000.0001)  useSingleCpuIO = /* only master MPI process does I/O */
(PID.TID 0000.0001)                   T
(PID.TID 0000.0001)     ;
(PID.TID 0000.0001) /* debLev[*]  : level of debug & auxiliary message printing */
(PID.TID 0000.0001) debLevZero =  0 ; /* level of disabled aux. msg printing */
(PID.TID 0000.0001)    debLevA =  1 ; /* level of minimum  aux. msg printing */
(PID.TID 0000.0001)    debLevB =  2 ; /* level of low aux. print (report read-file opening)*/
(PID.TID 0000.0001)    debLevC =  3 ; /* level of moderate debug prt (most pkgs debug msg) */
(PID.TID 0000.0001)    debLevD =  4 ; /* level of enhanced debug prt (add DEBUG_STATS prt) */
(PID.TID 0000.0001)    debLevE =  5 ; /* level of extensive debug printing */
(PID.TID 0000.0001) debugLevel =  /* select debug printing level */
(PID.TID 0000.0001)                       2
(PID.TID 0000.0001)     ;
(PID.TID 0000.0001) //
(PID.TID 0000.0001) // Elliptic solver(s) paramters ( PARM02 in namelist )
(PID.TID 0000.0001) //
(PID.TID 0000.0001) cg2dMaxIters =   /* Upper limit on 2d con. grad iterations  */
(PID.TID 0000.0001)                     300
(PID.TID 0000.0001)     ;
(PID.TID 0000.0001) cg2dChkResFreq =   /* 2d con. grad convergence test frequency */
(PID.TID 0000.0001)                       1
(PID.TID 0000.0001)     ;
(PID.TID 0000.0001) cg2dUseMinResSol= /* use cg2d last-iter(=0) / min-resid.(=1) solution */
(PID.TID 0000.0001)                       0
(PID.TID 0000.0001)     ;
(PID.TID 0000.0001) cg2dTargetResidual =   /* 2d con. grad target residual  */
(PID.TID 0000.0001)                 1.000000000000000E-07
(PID.TID 0000.0001)     ;
(PID.TID 0000.0001) cg2dTargetResWunit =   /* CG2d target residual [W units] */
(PID.TID 0000.0001)                -1.000000000000000E+00
(PID.TID 0000.0001)     ;
(PID.TID 0000.0001) cg2dPreCondFreq =   /* Freq. for updating cg2d preconditioner */
(PID.TID 0000.0001)                       1
(PID.TID 0000.0001)     ;
(PID.TID 0000.0001) useSRCGSolver =  /* use single reduction CG solver(s) */
(PID.TID 0000.0001)                   F
(PID.TID 0000.0001)     ;
(PID.TID 0000.0001) printResidualFreq = /* Freq. for printing CG residual */
(PID.TID 0000.0001)                       0
(PID.TID 0000.0001)     ;
(PID.TID 0000.0001) //
(PID.TID 0000.0001) // Time stepping paramters ( PARM03 in namelist )
(PID.TID 0000.0001) //
(PID.TID 0000.0001) deltaTMom =   /* Momentum equation timestep ( s ) */
(PID.TID 0000.0001)                 1.080000000000000E+04
(PID.TID 0000.0001)     ;
(PID.TID 0000.0001) deltaTFreeSurf = /* FreeSurface equation timestep ( s ) */
(PID.TID 0000.0001)                 1.080000000000000E+04
(PID.TID 0000.0001)     ;
(PID.TID 0000.0001) dTtracerLev =  /* Tracer equation timestep ( s ) */
(PID.TID 0000.0001)    35 @  1.080000000000000E+04              /* K =  1: 35 */
(PID.TID 0000.0001)     ;
(PID.TID 0000.0001) deltaTClock  =   /* Model clock timestep ( s ) */
(PID.TID 0000.0001)                 1.080000000000000E+04
(PID.TID 0000.0001)     ;
(PID.TID 0000.0001) cAdjFreq =   /* Convective adjustment interval ( s ) */
(PID.TID 0000.0001)                 0.000000000000000E+00
(PID.TID 0000.0001)     ;
(PID.TID 0000.0001) momForcingOutAB = /* =1: take Momentum Forcing out of Adams-Bash. stepping */
(PID.TID 0000.0001)                       0
(PID.TID 0000.0001)     ;
(PID.TID 0000.0001) tracForcingOutAB = /* =1: take T,S,pTr Forcing out of Adams-Bash. stepping */
(PID.TID 0000.0001)                       0
(PID.TID 0000.0001)     ;
(PID.TID 0000.0001) momDissip_In_AB = /* put Dissipation Tendency in Adams-Bash. stepping */
(PID.TID 0000.0001)                   T
(PID.TID 0000.0001)     ;
(PID.TID 0000.0001) doAB_onGtGs = /* apply AB on Tendencies (rather than on T,S)*/
(PID.TID 0000.0001)                   T
(PID.TID 0000.0001)     ;
(PID.TID 0000.0001) abEps =   /* Adams-Bashforth-2 stabilizing weight */
(PID.TID 0000.0001)                 1.000000000000000E-01
(PID.TID 0000.0001)     ;
(PID.TID 0000.0001) pickupStrictlyMatch= /* stop if pickup do not strictly match */
(PID.TID 0000.0001)                   T
(PID.TID 0000.0001)     ;
(PID.TID 0000.0001) nIter0   =   /* Run starting timestep number */
(PID.TID 0000.0001)                       0
(PID.TID 0000.0001)     ;
(PID.TID 0000.0001) nTimeSteps = /* Number of timesteps */
(PID.TID 0000.0001)                       4
(PID.TID 0000.0001)     ;
(PID.TID 0000.0001) nEndIter =   /* Run ending timestep number */
(PID.TID 0000.0001)                       4
(PID.TID 0000.0001)     ;
(PID.TID 0000.0001) baseTime =   /* Model base time ( s ) */
(PID.TID 0000.0001)                 0.000000000000000E+00
(PID.TID 0000.0001)     ;
(PID.TID 0000.0001) startTime =  /* Run start time ( s ) */
(PID.TID 0000.0001)                 0.000000000000000E+00
(PID.TID 0000.0001)     ;
(PID.TID 0000.0001) endTime  =   /* Integration ending time ( s ) */
(PID.TID 0000.0001)                 4.320000000000000E+04
(PID.TID 0000.0001)     ;
(PID.TID 0000.0001) pChkPtFreq = /* Permanent restart/pickup file interval ( s ) */
(PID.TID 0000.0001)                 3.110400000000000E+07
(PID.TID 0000.0001)     ;
(PID.TID 0000.0001) chkPtFreq  = /* Rolling restart/pickup file interval ( s ) */
(PID.TID 0000.0001)                 3.110400000000000E+07
(PID.TID 0000.0001)     ;
(PID.TID 0000.0001) pickup_write_mdsio =   /* Model IO flag. */
(PID.TID 0000.0001)                   T
(PID.TID 0000.0001)     ;
(PID.TID 0000.0001) pickup_read_mdsio =   /* Model IO flag. */
(PID.TID 0000.0001)                   T
(PID.TID 0000.0001)     ;
(PID.TID 0000.0001) pickup_write_mnc =   /* Model IO flag. */
(PID.TID 0000.0001)                   F
(PID.TID 0000.0001)     ;
(PID.TID 0000.0001) pickup_read_mnc =   /* Model IO flag. */
(PID.TID 0000.0001)                   F
(PID.TID 0000.0001)     ;
(PID.TID 0000.0001) pickup_write_immed =   /* Model IO flag. */
(PID.TID 0000.0001)                   F
(PID.TID 0000.0001)     ;
(PID.TID 0000.0001) writePickupAtEnd =   /* Model IO flag. */
(PID.TID 0000.0001)                   T
(PID.TID 0000.0001)     ;
(PID.TID 0000.0001) dumpFreq =   /* Model state write out interval ( s ). */
(PID.TID 0000.0001)                 3.110400000000000E+07
(PID.TID 0000.0001)     ;
(PID.TID 0000.0001) dumpInitAndLast= /* write out Initial & Last iter. model state */
(PID.TID 0000.0001)                   T
(PID.TID 0000.0001)     ;
(PID.TID 0000.0001) snapshot_mdsio =   /* Model IO flag. */
(PID.TID 0000.0001)                   F
(PID.TID 0000.0001)     ;
(PID.TID 0000.0001) snapshot_mnc =   /* Model IO flag. */
(PID.TID 0000.0001)                   T
(PID.TID 0000.0001)     ;
(PID.TID 0000.0001) monitorFreq =   /* Monitor output interval ( s ). */
(PID.TID 0000.0001)                 1.000000000000000E+00
(PID.TID 0000.0001)     ;
(PID.TID 0000.0001) monitorSelect = /* select group of variables to monitor */
(PID.TID 0000.0001)                       3
(PID.TID 0000.0001)     ;
(PID.TID 0000.0001) monitor_stdio =   /* Model IO flag. */
(PID.TID 0000.0001)                   T
(PID.TID 0000.0001)     ;
(PID.TID 0000.0001) monitor_mnc =   /* Model IO flag. */
(PID.TID 0000.0001)                   F
(PID.TID 0000.0001)     ;
(PID.TID 0000.0001) externForcingPeriod =   /* forcing period (s) */
(PID.TID 0000.0001)                 2.592000000000000E+06
(PID.TID 0000.0001)     ;
(PID.TID 0000.0001) externForcingCycle =   /* period of the cyle (s). */
(PID.TID 0000.0001)                 3.110400000000000E+07
(PID.TID 0000.0001)     ;
(PID.TID 0000.0001) tauThetaClimRelax =   /* relaxation time scale (s) */
(PID.TID 0000.0001)                 2.592000000000000E+05
(PID.TID 0000.0001)     ;
(PID.TID 0000.0001) tauSaltClimRelax =   /* relaxation time scale (s) */
(PID.TID 0000.0001)                 0.000000000000000E+00
(PID.TID 0000.0001)     ;
(PID.TID 0000.0001) latBandClimRelax =   /* max. Lat. where relaxation */
(PID.TID 0000.0001)                 1.800000000000000E+02
(PID.TID 0000.0001)     ;
(PID.TID 0000.0001) //
(PID.TID 0000.0001) // Gridding paramters ( PARM04 in namelist )
(PID.TID 0000.0001) //
(PID.TID 0000.0001) usingCartesianGrid = /* Cartesian coordinates flag ( True/False ) */
(PID.TID 0000.0001)                   F
(PID.TID 0000.0001)     ;
(PID.TID 0000.0001) usingCylindricalGrid = /* Cylindrical coordinates flag ( True/False ) */
(PID.TID 0000.0001)                   F
(PID.TID 0000.0001)     ;
(PID.TID 0000.0001) usingSphericalPolarGrid = /* Spherical coordinates flag ( True/False ) */
(PID.TID 0000.0001)                   T
(PID.TID 0000.0001)     ;
(PID.TID 0000.0001) usingCurvilinearGrid = /* Curvilinear coordinates flag ( True/False ) */
(PID.TID 0000.0001)                   F
(PID.TID 0000.0001)     ;
(PID.TID 0000.0001) selectSigmaCoord = /* Hybrid-Sigma Vert. Coordinate option */
(PID.TID 0000.0001)                       0
(PID.TID 0000.0001)     ;
(PID.TID 0000.0001) Ro_SeaLevel = /* r(1) ( units of r ==  m ) */
(PID.TID 0000.0001)                 0.000000000000000E+00
(PID.TID 0000.0001)     ;
(PID.TID 0000.0001) rSigmaBnd = /* r/sigma transition ( units of r ==  m ) */
(PID.TID 0000.0001)                 1.234567000000000E+05
(PID.TID 0000.0001)     ;
(PID.TID 0000.0001) rkSign =   /* index orientation relative to vertical coordinate */
(PID.TID 0000.0001)                -1.000000000000000E+00
(PID.TID 0000.0001)     ;
(PID.TID 0000.0001) gravitySign = /* gravity orientation relative to vertical coordinate */
(PID.TID 0000.0001)                -1.000000000000000E+00
(PID.TID 0000.0001)     ;
(PID.TID 0000.0001) mass2rUnit = /* convert mass per unit area [kg/m2] to r-units [m] */
(PID.TID 0000.0001)                 1.000200040008002E-03
(PID.TID 0000.0001)     ;
(PID.TID 0000.0001) rUnit2mass = /* convert r-units [m] to mass per unit area [kg/m2] */
(PID.TID 0000.0001)                 9.998000000000000E+02
(PID.TID 0000.0001)     ;
(PID.TID 0000.0001) drC =   /* C spacing ( units of r ) */
(PID.TID 0000.0001)                 5.000000000000000E+00,      /* K =  1 */
(PID.TID 0000.0001)    13 @  1.000000000000000E+01,             /* K =  2: 14 */
(PID.TID 0000.0001)                 1.250000000000000E+01,      /* K = 15 */
(PID.TID 0000.0001)     4 @  1.500000000000000E+01,             /* K = 16: 19 */
(PID.TID 0000.0001)                 1.750000000000000E+01,      /* K = 20 */
(PID.TID 0000.0001)     3 @  2.000000000000000E+01,             /* K = 21: 23 */
(PID.TID 0000.0001)                 3.500000000000000E+01,      /* K = 24 */
(PID.TID 0000.0001)                 5.000000000000000E+01,      /* K = 25 */
(PID.TID 0000.0001)                 7.500000000000000E+01,      /* K = 26 */
(PID.TID 0000.0001)                 1.250000000000000E+02,      /* K = 27 */
(PID.TID 0000.0001)                 1.500000000000000E+02,      /* K = 28 */
(PID.TID 0000.0001)                 1.750000000000000E+02,      /* K = 29 */
(PID.TID 0000.0001)                 2.500000000000000E+02,      /* K = 30 */
(PID.TID 0000.0001)                 3.500000000000000E+02,      /* K = 31 */
(PID.TID 0000.0001)     2 @  4.000000000000000E+02,             /* K = 32: 33 */
(PID.TID 0000.0001)                 4.500000000000000E+02,      /* K = 34 */
(PID.TID 0000.0001)                 5.000000000000000E+02       /* K = 35 */
(PID.TID 0000.0001)     ;
(PID.TID 0000.0001) drF =   /* W spacing ( units of r ) */
(PID.TID 0000.0001)    14 @  1.000000000000000E+01,             /* K =  1: 14 */
(PID.TID 0000.0001)     5 @  1.500000000000000E+01,             /* K = 15: 19 */
(PID.TID 0000.0001)     4 @  2.000000000000000E+01,             /* K = 20: 23 */
(PID.TID 0000.0001)     2 @  5.000000000000000E+01,             /* K = 24: 25 */
(PID.TID 0000.0001)                 1.000000000000000E+02,      /* K = 26 */
(PID.TID 0000.0001)     2 @  1.500000000000000E+02,             /* K = 27: 28 */
(PID.TID 0000.0001)                 2.000000000000000E+02,      /* K = 29 */
(PID.TID 0000.0001)                 3.000000000000000E+02,      /* K = 30 */
(PID.TID 0000.0001)     3 @  4.000000000000000E+02,             /* K = 31: 33 */
(PID.TID 0000.0001)     2 @  5.000000000000000E+02              /* K = 34: 35 */
(PID.TID 0000.0001)     ;
(PID.TID 0000.0001) delX = /* U spacing ( m - cartesian, degrees - spherical ) */
(PID.TID 0000.0001)                 1.000000000000000E+00       /* I =  1 */
(PID.TID 0000.0001)     ;
(PID.TID 0000.0001) delY = /* V spacing ( m - cartesian, degrees - spherical ) */
(PID.TID 0000.0001)                 1.000000000000000E+00       /* J =  1 */
(PID.TID 0000.0001)     ;
(PID.TID 0000.0001) xgOrigin = /* X-axis origin of West  edge (cartesian: m, lat-lon: deg) */
(PID.TID 0000.0001)                 3.350000000000000E+02
(PID.TID 0000.0001)     ;
(PID.TID 0000.0001) ygOrigin = /* Y-axis origin of South edge (cartesian: m, lat-lon: deg) */
(PID.TID 0000.0001)                -1.800000000000000E+01
(PID.TID 0000.0001)     ;
(PID.TID 0000.0001) rSphere =  /* Radius ( ignored - cartesian, m - spherical ) */
(PID.TID 0000.0001)                 6.370000000000000E+06
(PID.TID 0000.0001)     ;
(PID.TID 0000.0001) deepAtmosphere = /* Deep/Shallow Atmosphere flag (True/False) */
(PID.TID 0000.0001)                   F
(PID.TID 0000.0001)     ;
(PID.TID 0000.0001) xC =  /* xC(:,1,:,1) : P-point X coord ( deg. or m if cartesian) */
(PID.TID 0000.0001)                 3.355000000000000E+02       /* I =  1 */
(PID.TID 0000.0001)     ;
(PID.TID 0000.0001) yC =  /* yC(1,:,1,:) : P-point Y coord ( deg. or m if cartesian) */
(PID.TID 0000.0001)                -1.750000000000000E+01       /* J =  1 */
(PID.TID 0000.0001)     ;
(PID.TID 0000.0001) rcoord = /* P-point R coordinate (  units of r ) */
(PID.TID 0000.0001)                -5.000000000000000E+00,      /* K =  1 */
(PID.TID 0000.0001)                -1.500000000000000E+01,      /* K =  2 */
(PID.TID 0000.0001)                -2.500000000000000E+01,      /* K =  3 */
(PID.TID 0000.0001)                -3.500000000000000E+01,      /* K =  4 */
(PID.TID 0000.0001)                -4.500000000000000E+01,      /* K =  5 */
(PID.TID 0000.0001)                -5.500000000000000E+01,      /* K =  6 */
(PID.TID 0000.0001)                -6.500000000000000E+01,      /* K =  7 */
(PID.TID 0000.0001)                -7.500000000000000E+01,      /* K =  8 */
(PID.TID 0000.0001)                -8.500000000000000E+01,      /* K =  9 */
(PID.TID 0000.0001)                -9.500000000000000E+01,      /* K = 10 */
(PID.TID 0000.0001)                -1.050000000000000E+02,      /* K = 11 */
(PID.TID 0000.0001)                -1.150000000000000E+02,      /* K = 12 */
(PID.TID 0000.0001)                -1.250000000000000E+02,      /* K = 13 */
(PID.TID 0000.0001)                -1.350000000000000E+02,      /* K = 14 */
(PID.TID 0000.0001)                -1.475000000000000E+02,      /* K = 15 */
(PID.TID 0000.0001)                -1.625000000000000E+02,      /* K = 16 */
(PID.TID 0000.0001)                -1.775000000000000E+02,      /* K = 17 */
(PID.TID 0000.0001)                -1.925000000000000E+02,      /* K = 18 */
(PID.TID 0000.0001)                -2.075000000000000E+02,      /* K = 19 */
(PID.TID 0000.0001)                -2.250000000000000E+02,      /* K = 20 */
(PID.TID 0000.0001)                -2.450000000000000E+02,      /* K = 21 */
(PID.TID 0000.0001)                -2.650000000000000E+02,      /* K = 22 */
(PID.TID 0000.0001)                -2.850000000000000E+02,      /* K = 23 */
(PID.TID 0000.0001)                -3.200000000000000E+02,      /* K = 24 */
(PID.TID 0000.0001)                -3.700000000000000E+02,      /* K = 25 */
(PID.TID 0000.0001)                -4.450000000000000E+02,      /* K = 26 */
(PID.TID 0000.0001)                -5.700000000000000E+02,      /* K = 27 */
(PID.TID 0000.0001)                -7.200000000000000E+02,      /* K = 28 */
(PID.TID 0000.0001)                -8.950000000000000E+02,      /* K = 29 */
(PID.TID 0000.0001)                -1.145000000000000E+03,      /* K = 30 */
(PID.TID 0000.0001)                -1.495000000000000E+03,      /* K = 31 */
(PID.TID 0000.0001)                -1.895000000000000E+03,      /* K = 32 */
(PID.TID 0000.0001)                -2.295000000000000E+03,      /* K = 33 */
(PID.TID 0000.0001)                -2.745000000000000E+03,      /* K = 34 */
(PID.TID 0000.0001)                -3.245000000000000E+03       /* K = 35 */
(PID.TID 0000.0001)     ;
(PID.TID 0000.0001) rF =   /* W-Interf. R coordinate (  units of r ) */
(PID.TID 0000.0001)                 0.000000000000000E+00,      /* K =  1 */
(PID.TID 0000.0001)                -1.000000000000000E+01,      /* K =  2 */
(PID.TID 0000.0001)                -2.000000000000000E+01,      /* K =  3 */
(PID.TID 0000.0001)                -3.000000000000000E+01,      /* K =  4 */
(PID.TID 0000.0001)                -4.000000000000000E+01,      /* K =  5 */
(PID.TID 0000.0001)                -5.000000000000000E+01,      /* K =  6 */
(PID.TID 0000.0001)                -6.000000000000000E+01,      /* K =  7 */
(PID.TID 0000.0001)                -7.000000000000000E+01,      /* K =  8 */
(PID.TID 0000.0001)                -8.000000000000000E+01,      /* K =  9 */
(PID.TID 0000.0001)                -9.000000000000000E+01,      /* K = 10 */
(PID.TID 0000.0001)                -1.000000000000000E+02,      /* K = 11 */
(PID.TID 0000.0001)                -1.100000000000000E+02,      /* K = 12 */
(PID.TID 0000.0001)                -1.200000000000000E+02,      /* K = 13 */
(PID.TID 0000.0001)                -1.300000000000000E+02,      /* K = 14 */
(PID.TID 0000.0001)                -1.400000000000000E+02,      /* K = 15 */
(PID.TID 0000.0001)                -1.550000000000000E+02,      /* K = 16 */
(PID.TID 0000.0001)                -1.700000000000000E+02,      /* K = 17 */
(PID.TID 0000.0001)                -1.850000000000000E+02,      /* K = 18 */
(PID.TID 0000.0001)                -2.000000000000000E+02,      /* K = 19 */
(PID.TID 0000.0001)                -2.150000000000000E+02,      /* K = 20 */
(PID.TID 0000.0001)                -2.350000000000000E+02,      /* K = 21 */
(PID.TID 0000.0001)                -2.550000000000000E+02,      /* K = 22 */
(PID.TID 0000.0001)                -2.750000000000000E+02,      /* K = 23 */
(PID.TID 0000.0001)                -2.950000000000000E+02,      /* K = 24 */
(PID.TID 0000.0001)                -3.450000000000000E+02,      /* K = 25 */
(PID.TID 0000.0001)                -3.950000000000000E+02,      /* K = 26 */
(PID.TID 0000.0001)                -4.950000000000000E+02,      /* K = 27 */
(PID.TID 0000.0001)                -6.450000000000000E+02,      /* K = 28 */
(PID.TID 0000.0001)                -7.950000000000000E+02,      /* K = 29 */
(PID.TID 0000.0001)                -9.950000000000000E+02,      /* K = 30 */
(PID.TID 0000.0001)                -1.295000000000000E+03,      /* K = 31 */
(PID.TID 0000.0001)                -1.695000000000000E+03,      /* K = 32 */
(PID.TID 0000.0001)                -2.095000000000000E+03,      /* K = 33 */
(PID.TID 0000.0001)                -2.495000000000000E+03,      /* K = 34 */
(PID.TID 0000.0001)                -2.995000000000000E+03,      /* K = 35 */
(PID.TID 0000.0001)                -3.495000000000000E+03       /* K = 36 */
(PID.TID 0000.0001)     ;
(PID.TID 0000.0001) deepFacC = /* deep-model grid factor @ cell-Center (-) */
(PID.TID 0000.0001)    35 @  1.000000000000000E+00              /* K =  1: 35 */
(PID.TID 0000.0001)     ;
(PID.TID 0000.0001) deepFacF = /* deep-model grid factor @ W-Interface (-) */
(PID.TID 0000.0001)    36 @  1.000000000000000E+00              /* K =  1: 36 */
(PID.TID 0000.0001)     ;
(PID.TID 0000.0001) rVel2wUnit = /* convert units: rVel -> wSpeed (=1 if z-coord)*/
(PID.TID 0000.0001)    36 @  1.000000000000000E+00              /* K =  1: 36 */
(PID.TID 0000.0001)     ;
(PID.TID 0000.0001) wUnit2rVel = /* convert units: wSpeed -> rVel (=1 if z-coord)*/
(PID.TID 0000.0001)    36 @  1.000000000000000E+00              /* K =  1: 36 */
(PID.TID 0000.0001)     ;
(PID.TID 0000.0001) dBdrRef = /* Vertical grad. of reference buoyancy [(m/s/r)^2] */
(PID.TID 0000.0001)                 0.000000000000000E+00,      /* K =  1 */
(PID.TID 0000.0001)                 1.232578190459821E-04,      /* K =  2 */
(PID.TID 0000.0001)                 3.063957957303617E-05,      /* K =  3 */
(PID.TID 0000.0001)                 1.521320422054373E-04,      /* K =  4 */
(PID.TID 0000.0001)                 3.021271930223580E-05,      /* K =  5 */
(PID.TID 0000.0001)                 1.499903428890670E-04,      /* K =  6 */
(PID.TID 0000.0001)                 1.186737265074332E-04,      /* K =  7 */
(PID.TID 0000.0001)                 1.466841384627423E-04,      /* K =  8 */
(PID.TID 0000.0001)                 8.712618931102987E-05,      /* K =  9 */
(PID.TID 0000.0001)                 1.151380441308261E-04,      /* K = 10 */
(PID.TID 0000.0001)                 5.712979717883684E-05,      /* K = 11 */
(PID.TID 0000.0001)                 8.515049872565506E-05,      /* K = 12 */
(PID.TID 0000.0001)                 8.448721842774896E-05,      /* K = 13 */
(PID.TID 0000.0001)                 1.116043428725511E-04,      /* K = 14 */
(PID.TID 0000.0001)                 1.102373809396796E-04,      /* K = 15 */
(PID.TID 0000.0001)                 1.798828639202717E-04,      /* K = 16 */
(PID.TID 0000.0001)                 1.918102676980872E-04,      /* K = 17 */
(PID.TID 0000.0001)                 1.853506120896664E-04,      /* K = 18 */
(PID.TID 0000.0001)                 1.787791674911888E-04,      /* K = 19 */
(PID.TID 0000.0001)                 9.455522998141848E-05,      /* K = 20 */
(PID.TID 0000.0001)                 1.259231836379978E-04,      /* K = 21 */
(PID.TID 0000.0001)                 9.923620256554768E-05,      /* K = 22 */
(PID.TID 0000.0001)                 8.531935398693722E-05,      /* K = 23 */
(PID.TID 0000.0001)                 4.137475825384700E-05,      /* K = 24 */
(PID.TID 0000.0001)                 5.930109718499171E-05,      /* K = 25 */
(PID.TID 0000.0001)                 3.689739454308316E-05,      /* K = 26 */
(PID.TID 0000.0001)                 3.215311288275425E-05,      /* K = 27 */
(PID.TID 0000.0001)                 2.340106578013931E-05,      /* K = 28 */
(PID.TID 0000.0001)                 8.957465806881803E-06,      /* K = 29 */
(PID.TID 0000.0001)                 2.029141226789735E-06,      /* K = 30 */
(PID.TID 0000.0001)                 0.000000000000000E+00,      /* K = 31 */
(PID.TID 0000.0001)                 1.052869956707729E-06,      /* K = 32 */
(PID.TID 0000.0001)                 1.465965950004292E-06,      /* K = 33 */
(PID.TID 0000.0001)                 6.817081889333135E-07,      /* K = 34 */
(PID.TID 0000.0001)                 6.544800624285541E-07       /* K = 35 */
(PID.TID 0000.0001)     ;
(PID.TID 0000.0001) rotateGrid = /* use rotated grid ( True/False ) */
(PID.TID 0000.0001)                   F
(PID.TID 0000.0001)     ;
(PID.TID 0000.0001) phiEuler = /* Euler angle, rotation about original z-coordinate [rad] */
(PID.TID 0000.0001)                 0.000000000000000E+00
(PID.TID 0000.0001)     ;
(PID.TID 0000.0001) thetaEuler = /* Euler angle, rotation about new x-coordinate [rad] */
(PID.TID 0000.0001)                 0.000000000000000E+00
(PID.TID 0000.0001)     ;
(PID.TID 0000.0001) psiEuler = /* Euler angle, rotation about new z-coordinate [rad] */
(PID.TID 0000.0001)                 0.000000000000000E+00
(PID.TID 0000.0001)     ;
(PID.TID 0000.0001) dxF =  /* dxF(:,1,:,1) ( units: m ) */
(PID.TID 0000.0001)                 1.060318408771987E+05       /* I =  1 */
(PID.TID 0000.0001)     ;
(PID.TID 0000.0001) dxF =  /* dxF(1,:,1,:) ( units: m ) */
(PID.TID 0000.0001)                 1.060318408771987E+05       /* J =  1 */
(PID.TID 0000.0001)     ;
(PID.TID 0000.0001) dyF =  /* dyF(:,1,:,1) ( units: m ) */
(PID.TID 0000.0001)                 1.111774733520388E+05       /* I =  1 */
(PID.TID 0000.0001)     ;
(PID.TID 0000.0001) dyF =  /* dyF(1,:,1,:) ( units: m ) */
(PID.TID 0000.0001)                 1.111774733520388E+05       /* J =  1 */
(PID.TID 0000.0001)     ;
(PID.TID 0000.0001) dxG =  /* dxG(:,1,:,1) ( units: m ) */
(PID.TID 0000.0001)                 1.057360604966873E+05       /* I =  1 */
(PID.TID 0000.0001)     ;
(PID.TID 0000.0001) dxG =  /* dxG(1,:,1,:) ( units: m ) */
(PID.TID 0000.0001)                 1.057360604966873E+05       /* J =  1 */
(PID.TID 0000.0001)     ;
(PID.TID 0000.0001) dyG =  /* dyG(:,1,:,1) ( units: m ) */
(PID.TID 0000.0001)                 1.111774733520388E+05       /* I =  1 */
(PID.TID 0000.0001)     ;
(PID.TID 0000.0001) dyG =  /* dyG(1,:,1,:) ( units: m ) */
(PID.TID 0000.0001)                 1.111774733520388E+05       /* J =  1 */
(PID.TID 0000.0001)     ;
(PID.TID 0000.0001) dxC =  /* dxC(:,1,:,1) ( units: m ) */
(PID.TID 0000.0001)                 1.060318408771987E+05       /* I =  1 */
(PID.TID 0000.0001)     ;
(PID.TID 0000.0001) dxC =  /* dxC(1,:,1,:) ( units: m ) */
(PID.TID 0000.0001)                 1.060318408771987E+05       /* J =  1 */
(PID.TID 0000.0001)     ;
(PID.TID 0000.0001) dyC =  /* dyC(:,1,:,1) ( units: m ) */
(PID.TID 0000.0001)                 1.111774733520388E+05       /* I =  1 */
(PID.TID 0000.0001)     ;
(PID.TID 0000.0001) dyC =  /* dyC(1,:,1,:) ( units: m ) */
(PID.TID 0000.0001)                 1.111774733520388E+05       /* J =  1 */
(PID.TID 0000.0001)     ;
(PID.TID 0000.0001) dxV =  /* dxV(:,1,:,1) ( units: m ) */
(PID.TID 0000.0001)                 1.057360604966873E+05       /* I =  1 */
(PID.TID 0000.0001)     ;
(PID.TID 0000.0001) dxV =  /* dxV(1,:,1,:) ( units: m ) */
(PID.TID 0000.0001)                 1.057360604966873E+05       /* J =  1 */
(PID.TID 0000.0001)     ;
(PID.TID 0000.0001) dyU =  /* dyU(:,1,:,1) ( units: m ) */
(PID.TID 0000.0001)                 1.111774733520388E+05       /* I =  1 */
(PID.TID 0000.0001)     ;
(PID.TID 0000.0001) dyU =  /* dyU(1,:,1,:) ( units: m ) */
(PID.TID 0000.0001)                 1.111774733520388E+05       /* J =  1 */
(PID.TID 0000.0001)     ;
(PID.TID 0000.0001) rA  =  /* rA (:,1,:,1) ( units: m^2 ) */
(PID.TID 0000.0001)                 1.178820254176956E+10       /* I =  1 */
(PID.TID 0000.0001)     ;
(PID.TID 0000.0001) rA  =  /* rA (1,:,1,:) ( units: m^2 ) */
(PID.TID 0000.0001)                 1.178820254176956E+10       /* J =  1 */
(PID.TID 0000.0001)     ;
(PID.TID 0000.0001) rAw =  /* rAw(:,1,:,1) ( units: m^2 ) */
(PID.TID 0000.0001)                 1.178820254176956E+10       /* I =  1 */
(PID.TID 0000.0001)     ;
(PID.TID 0000.0001) rAw =  /* rAw(1,:,1,:) ( units: m^2 ) */
(PID.TID 0000.0001)                 1.178820254176956E+10       /* J =  1 */
(PID.TID 0000.0001)     ;
(PID.TID 0000.0001) rAs =  /* rAs(:,1,:,1) ( units: m^2 ) */
(PID.TID 0000.0001)                 1.175531884377377E+10       /* I =  1 */
(PID.TID 0000.0001)     ;
(PID.TID 0000.0001) rAs =  /* rAs(1,:,1,:) ( units: m^2 ) */
(PID.TID 0000.0001)                 1.175531884377377E+10       /* J =  1 */
(PID.TID 0000.0001)     ;
(PID.TID 0000.0001) globalArea = /* Integrated horizontal Area (m^2) */
(PID.TID 0000.0001)                 1.178820254176956E+10
(PID.TID 0000.0001)     ;
(PID.TID 0000.0001) // =======================================================
(PID.TID 0000.0001) // End of Model config. summary
(PID.TID 0000.0001) // =======================================================
(PID.TID 0000.0001) 
(PID.TID 0000.0001) == Packages configuration : Check & print summary ==
(PID.TID 0000.0001) 
(PID.TID 0000.0001) KPP_CHECK: #define ALLOW_KPP
(PID.TID 0000.0001) PTRACERS_CHECK: #define ALLOW_PTRACERS
(PID.TID 0000.0001) PTRACERS_CHECK: updated GAD_OlMinSize=  2  0  1
(PID.TID 0000.0001) // ===================================
(PID.TID 0000.0001) // PTRACERS parameters
(PID.TID 0000.0001) // ===================================
(PID.TID 0000.0001) PTRACERS_numInUse = /* number of tracers */
(PID.TID 0000.0001)                      74
(PID.TID 0000.0001)     ;
(PID.TID 0000.0001) PTRACERS_Iter0 = /* timestep number when tracers are initialized */
(PID.TID 0000.0001)                       0
(PID.TID 0000.0001)     ;
(PID.TID 0000.0001) PTRACERS_startAllTrc =/* all tracers start @ startTime */
(PID.TID 0000.0001)                   T
(PID.TID 0000.0001)     ;
(PID.TID 0000.0001) PTRACERS_addSrelax2EmP =/* add Salt relaxation to EmP */
(PID.TID 0000.0001)                   F
(PID.TID 0000.0001)     ;
(PID.TID 0000.0001) PTRACERS_dTLev =   /* Ptracer timestep ( s ) */
(PID.TID 0000.0001)    35 @  1.080000000000000E+04              /* K =  1: 35 */
(PID.TID 0000.0001)     ;
(PID.TID 0000.0001) PTRACERS_dumpFreq = /* Frequency^-1 for snapshot output (s) */
(PID.TID 0000.0001)                 3.110400000000000E+07
(PID.TID 0000.0001)     ;
(PID.TID 0000.0001) PTRACERS_taveFreq = /* Frequency^-1 for time-Aver. output (s) */
(PID.TID 0000.0001)                 8.640000000000000E+04
(PID.TID 0000.0001)     ;
(PID.TID 0000.0001) PTRACERS_useRecords = /* all tracers in 1 file */
(PID.TID 0000.0001)                   F
(PID.TID 0000.0001)     ;
(PID.TID 0000.0001) PTRACERS_timeave_mnc = /* use MNC for Tave output */
(PID.TID 0000.0001)                   T
(PID.TID 0000.0001)     ;
(PID.TID 0000.0001) PTRACERS_snapshot_mnc = /* use MNC for snapshot output */
(PID.TID 0000.0001)                   T
(PID.TID 0000.0001)     ;
(PID.TID 0000.0001) PTRACERS_pickup_write_mnc = /* use MNC for writing pickups */
(PID.TID 0000.0001)                   F
(PID.TID 0000.0001)     ;
(PID.TID 0000.0001) PTRACERS_pickup_read_mnc = /* use MNC for reading pickups */
(PID.TID 0000.0001)                   F
(PID.TID 0000.0001)     ;
(PID.TID 0000.0001)  -----------------------------------
(PID.TID 0000.0001)  tracer number :    1
(PID.TID 0000.0001) PTRACERS_names = /* Tracer short name */
(PID.TID 0000.0001)               'DIC'
(PID.TID 0000.0001)     ;
(PID.TID 0000.0001) PTRACERS_long_names = /* Tracer long name */
(PID.TID 0000.0001)               ''
(PID.TID 0000.0001)     ;
(PID.TID 0000.0001) PTRACERS_ioLabel = /* tracer IO Label */
(PID.TID 0000.0001)               '01'
(PID.TID 0000.0001)     ;
(PID.TID 0000.0001) PTRACERS_advScheme = /* Advection Scheme */
(PID.TID 0000.0001)                      33
(PID.TID 0000.0001)     ;
(PID.TID 0000.0001) PTRACERS_SOM_Advection = /* tracer uses SOM advection scheme */
(PID.TID 0000.0001)                   F
(PID.TID 0000.0001)     ;
(PID.TID 0000.0001) PTRACERS_ImplVertAdv = /* implicit vert. advection flag */
(PID.TID 0000.0001)                   F
(PID.TID 0000.0001)     ;
(PID.TID 0000.0001) PTRACERS_diffKh = /* Laplacian Diffusivity */
(PID.TID 0000.0001)                 0.000000000000000E+00
(PID.TID 0000.0001)     ;
(PID.TID 0000.0001) PTRACERS_diffK4 = /* Biharmonic Diffusivity */
(PID.TID 0000.0001)                 0.000000000000000E+00
(PID.TID 0000.0001)     ;
(PID.TID 0000.0001) PTRACERS_diffKrNr = /* Vertical Diffusivity */
(PID.TID 0000.0001)    35 @  1.000000000000000E-05              /* K =  1: 35 */
(PID.TID 0000.0001)     ;
(PID.TID 0000.0001) PTRACERS_useGMRedi = /* apply GM-Redi */
(PID.TID 0000.0001)                   F
(PID.TID 0000.0001)     ;
(PID.TID 0000.0001) PTRACERS_useDWNSLP = /* apply DOWN-SLOPE Flow */
(PID.TID 0000.0001)                   F
(PID.TID 0000.0001)     ;
(PID.TID 0000.0001) PTRACERS_useKPP = /* apply KPP scheme */
(PID.TID 0000.0001)                   T
(PID.TID 0000.0001)     ;
(PID.TID 0000.0001) PTRACERS_ref = /* Reference vertical profile */
(PID.TID 0000.0001)    35 @  0.000000000000000E+00              /* K =  1: 35 */
(PID.TID 0000.0001)     ;
(PID.TID 0000.0001) PTRACERS_EvPrRn =/* tracer conc. in Evap. & Rain */
(PID.TID 0000.0001)                 1.234567000000000E+05
(PID.TID 0000.0001)     ;
(PID.TID 0000.0001)  -----------------------------------
(PID.TID 0000.0001)  tracer number :    2
(PID.TID 0000.0001) PTRACERS_names = /* Tracer short name */
(PID.TID 0000.0001)               'NO3'
(PID.TID 0000.0001)     ;
(PID.TID 0000.0001) PTRACERS_long_names = /* Tracer long name */
(PID.TID 0000.0001)               ''
(PID.TID 0000.0001)     ;
(PID.TID 0000.0001) PTRACERS_ioLabel = /* tracer IO Label */
(PID.TID 0000.0001)               '02'
(PID.TID 0000.0001)     ;
(PID.TID 0000.0001) PTRACERS_advScheme = /* Advection Scheme */
(PID.TID 0000.0001)                      33
(PID.TID 0000.0001)     ;
(PID.TID 0000.0001) PTRACERS_SOM_Advection = /* tracer uses SOM advection scheme */
(PID.TID 0000.0001)                   F
(PID.TID 0000.0001)     ;
(PID.TID 0000.0001) PTRACERS_ImplVertAdv = /* implicit vert. advection flag */
(PID.TID 0000.0001)                   F
(PID.TID 0000.0001)     ;
(PID.TID 0000.0001) PTRACERS_diffKh = /* Laplacian Diffusivity */
(PID.TID 0000.0001)                 0.000000000000000E+00
(PID.TID 0000.0001)     ;
(PID.TID 0000.0001) PTRACERS_diffK4 = /* Biharmonic Diffusivity */
(PID.TID 0000.0001)                 0.000000000000000E+00
(PID.TID 0000.0001)     ;
(PID.TID 0000.0001) PTRACERS_diffKrNr = /* Vertical Diffusivity */
(PID.TID 0000.0001)    35 @  1.000000000000000E-05              /* K =  1: 35 */
(PID.TID 0000.0001)     ;
(PID.TID 0000.0001) PTRACERS_useGMRedi = /* apply GM-Redi */
(PID.TID 0000.0001)                   F
(PID.TID 0000.0001)     ;
(PID.TID 0000.0001) PTRACERS_useDWNSLP = /* apply DOWN-SLOPE Flow */
(PID.TID 0000.0001)                   F
(PID.TID 0000.0001)     ;
(PID.TID 0000.0001) PTRACERS_useKPP = /* apply KPP scheme */
(PID.TID 0000.0001)                   T
(PID.TID 0000.0001)     ;
(PID.TID 0000.0001) PTRACERS_ref = /* Reference vertical profile */
(PID.TID 0000.0001)    35 @  0.000000000000000E+00              /* K =  1: 35 */
(PID.TID 0000.0001)     ;
(PID.TID 0000.0001) PTRACERS_EvPrRn =/* tracer conc. in Evap. & Rain */
(PID.TID 0000.0001)                 1.234567000000000E+05
(PID.TID 0000.0001)     ;
(PID.TID 0000.0001)  -----------------------------------
(PID.TID 0000.0001)  tracer number :    3
(PID.TID 0000.0001) PTRACERS_names = /* Tracer short name */
(PID.TID 0000.0001)               'NO2'
(PID.TID 0000.0001)     ;
(PID.TID 0000.0001) PTRACERS_long_names = /* Tracer long name */
(PID.TID 0000.0001)               ''
(PID.TID 0000.0001)     ;
(PID.TID 0000.0001) PTRACERS_ioLabel = /* tracer IO Label */
(PID.TID 0000.0001)               '03'
(PID.TID 0000.0001)     ;
(PID.TID 0000.0001) PTRACERS_advScheme = /* Advection Scheme */
(PID.TID 0000.0001)                      33
(PID.TID 0000.0001)     ;
(PID.TID 0000.0001) PTRACERS_SOM_Advection = /* tracer uses SOM advection scheme */
(PID.TID 0000.0001)                   F
(PID.TID 0000.0001)     ;
(PID.TID 0000.0001) PTRACERS_ImplVertAdv = /* implicit vert. advection flag */
(PID.TID 0000.0001)                   F
(PID.TID 0000.0001)     ;
(PID.TID 0000.0001) PTRACERS_diffKh = /* Laplacian Diffusivity */
(PID.TID 0000.0001)                 0.000000000000000E+00
(PID.TID 0000.0001)     ;
(PID.TID 0000.0001) PTRACERS_diffK4 = /* Biharmonic Diffusivity */
(PID.TID 0000.0001)                 0.000000000000000E+00
(PID.TID 0000.0001)     ;
(PID.TID 0000.0001) PTRACERS_diffKrNr = /* Vertical Diffusivity */
(PID.TID 0000.0001)    35 @  1.000000000000000E-05              /* K =  1: 35 */
(PID.TID 0000.0001)     ;
(PID.TID 0000.0001) PTRACERS_useGMRedi = /* apply GM-Redi */
(PID.TID 0000.0001)                   F
(PID.TID 0000.0001)     ;
(PID.TID 0000.0001) PTRACERS_useDWNSLP = /* apply DOWN-SLOPE Flow */
(PID.TID 0000.0001)                   F
(PID.TID 0000.0001)     ;
(PID.TID 0000.0001) PTRACERS_useKPP = /* apply KPP scheme */
(PID.TID 0000.0001)                   T
(PID.TID 0000.0001)     ;
(PID.TID 0000.0001) PTRACERS_ref = /* Reference vertical profile */
(PID.TID 0000.0001)    35 @  0.000000000000000E+00              /* K =  1: 35 */
(PID.TID 0000.0001)     ;
(PID.TID 0000.0001) PTRACERS_EvPrRn =/* tracer conc. in Evap. & Rain */
(PID.TID 0000.0001)                 1.234567000000000E+05
(PID.TID 0000.0001)     ;
(PID.TID 0000.0001)  -----------------------------------
(PID.TID 0000.0001)  tracer number :    4
(PID.TID 0000.0001) PTRACERS_names = /* Tracer short name */
(PID.TID 0000.0001)               'NH4'
(PID.TID 0000.0001)     ;
(PID.TID 0000.0001) PTRACERS_long_names = /* Tracer long name */
(PID.TID 0000.0001)               ''
(PID.TID 0000.0001)     ;
(PID.TID 0000.0001) PTRACERS_ioLabel = /* tracer IO Label */
(PID.TID 0000.0001)               '04'
(PID.TID 0000.0001)     ;
(PID.TID 0000.0001) PTRACERS_advScheme = /* Advection Scheme */
(PID.TID 0000.0001)                      33
(PID.TID 0000.0001)     ;
(PID.TID 0000.0001) PTRACERS_SOM_Advection = /* tracer uses SOM advection scheme */
(PID.TID 0000.0001)                   F
(PID.TID 0000.0001)     ;
(PID.TID 0000.0001) PTRACERS_ImplVertAdv = /* implicit vert. advection flag */
(PID.TID 0000.0001)                   F
(PID.TID 0000.0001)     ;
(PID.TID 0000.0001) PTRACERS_diffKh = /* Laplacian Diffusivity */
(PID.TID 0000.0001)                 0.000000000000000E+00
(PID.TID 0000.0001)     ;
(PID.TID 0000.0001) PTRACERS_diffK4 = /* Biharmonic Diffusivity */
(PID.TID 0000.0001)                 0.000000000000000E+00
(PID.TID 0000.0001)     ;
(PID.TID 0000.0001) PTRACERS_diffKrNr = /* Vertical Diffusivity */
(PID.TID 0000.0001)    35 @  1.000000000000000E-05              /* K =  1: 35 */
(PID.TID 0000.0001)     ;
(PID.TID 0000.0001) PTRACERS_useGMRedi = /* apply GM-Redi */
(PID.TID 0000.0001)                   F
(PID.TID 0000.0001)     ;
(PID.TID 0000.0001) PTRACERS_useDWNSLP = /* apply DOWN-SLOPE Flow */
(PID.TID 0000.0001)                   F
(PID.TID 0000.0001)     ;
(PID.TID 0000.0001) PTRACERS_useKPP = /* apply KPP scheme */
(PID.TID 0000.0001)                   T
(PID.TID 0000.0001)     ;
(PID.TID 0000.0001) PTRACERS_ref = /* Reference vertical profile */
(PID.TID 0000.0001)    35 @  0.000000000000000E+00              /* K =  1: 35 */
(PID.TID 0000.0001)     ;
(PID.TID 0000.0001) PTRACERS_EvPrRn =/* tracer conc. in Evap. & Rain */
(PID.TID 0000.0001)                 1.234567000000000E+05
(PID.TID 0000.0001)     ;
(PID.TID 0000.0001)  -----------------------------------
(PID.TID 0000.0001)  tracer number :    5
(PID.TID 0000.0001) PTRACERS_names = /* Tracer short name */
(PID.TID 0000.0001)               'FeT'
(PID.TID 0000.0001)     ;
(PID.TID 0000.0001) PTRACERS_long_names = /* Tracer long name */
(PID.TID 0000.0001)               ''
(PID.TID 0000.0001)     ;
(PID.TID 0000.0001) PTRACERS_ioLabel = /* tracer IO Label */
(PID.TID 0000.0001)               '05'
(PID.TID 0000.0001)     ;
(PID.TID 0000.0001) PTRACERS_advScheme = /* Advection Scheme */
(PID.TID 0000.0001)                      33
(PID.TID 0000.0001)     ;
(PID.TID 0000.0001) PTRACERS_SOM_Advection = /* tracer uses SOM advection scheme */
(PID.TID 0000.0001)                   F
(PID.TID 0000.0001)     ;
(PID.TID 0000.0001) PTRACERS_ImplVertAdv = /* implicit vert. advection flag */
(PID.TID 0000.0001)                   F
(PID.TID 0000.0001)     ;
(PID.TID 0000.0001) PTRACERS_diffKh = /* Laplacian Diffusivity */
(PID.TID 0000.0001)                 0.000000000000000E+00
(PID.TID 0000.0001)     ;
(PID.TID 0000.0001) PTRACERS_diffK4 = /* Biharmonic Diffusivity */
(PID.TID 0000.0001)                 0.000000000000000E+00
(PID.TID 0000.0001)     ;
(PID.TID 0000.0001) PTRACERS_diffKrNr = /* Vertical Diffusivity */
(PID.TID 0000.0001)    35 @  1.000000000000000E-05              /* K =  1: 35 */
(PID.TID 0000.0001)     ;
(PID.TID 0000.0001) PTRACERS_useGMRedi = /* apply GM-Redi */
(PID.TID 0000.0001)                   F
(PID.TID 0000.0001)     ;
(PID.TID 0000.0001) PTRACERS_useDWNSLP = /* apply DOWN-SLOPE Flow */
(PID.TID 0000.0001)                   F
(PID.TID 0000.0001)     ;
(PID.TID 0000.0001) PTRACERS_useKPP = /* apply KPP scheme */
(PID.TID 0000.0001)                   T
(PID.TID 0000.0001)     ;
(PID.TID 0000.0001) PTRACERS_ref = /* Reference vertical profile */
(PID.TID 0000.0001)    35 @  0.000000000000000E+00              /* K =  1: 35 */
(PID.TID 0000.0001)     ;
(PID.TID 0000.0001) PTRACERS_EvPrRn =/* tracer conc. in Evap. & Rain */
(PID.TID 0000.0001)                 1.234567000000000E+05
(PID.TID 0000.0001)     ;
(PID.TID 0000.0001)  -----------------------------------
(PID.TID 0000.0001)  tracer number :    6
(PID.TID 0000.0001) PTRACERS_names = /* Tracer short name */
(PID.TID 0000.0001)               'BIO_1_001'
(PID.TID 0000.0001)     ;
(PID.TID 0000.0001) PTRACERS_long_names = /* Tracer long name */
(PID.TID 0000.0001)               ''
(PID.TID 0000.0001)     ;
(PID.TID 0000.0001) PTRACERS_ioLabel = /* tracer IO Label */
(PID.TID 0000.0001)               '06'
(PID.TID 0000.0001)     ;
(PID.TID 0000.0001) PTRACERS_advScheme = /* Advection Scheme */
(PID.TID 0000.0001)                      33
(PID.TID 0000.0001)     ;
(PID.TID 0000.0001) PTRACERS_SOM_Advection = /* tracer uses SOM advection scheme */
(PID.TID 0000.0001)                   F
(PID.TID 0000.0001)     ;
(PID.TID 0000.0001) PTRACERS_ImplVertAdv = /* implicit vert. advection flag */
(PID.TID 0000.0001)                   F
(PID.TID 0000.0001)     ;
(PID.TID 0000.0001) PTRACERS_diffKh = /* Laplacian Diffusivity */
(PID.TID 0000.0001)                 0.000000000000000E+00
(PID.TID 0000.0001)     ;
(PID.TID 0000.0001) PTRACERS_diffK4 = /* Biharmonic Diffusivity */
(PID.TID 0000.0001)                 0.000000000000000E+00
(PID.TID 0000.0001)     ;
(PID.TID 0000.0001) PTRACERS_diffKrNr = /* Vertical Diffusivity */
(PID.TID 0000.0001)    35 @  1.000000000000000E-05              /* K =  1: 35 */
(PID.TID 0000.0001)     ;
(PID.TID 0000.0001) PTRACERS_useGMRedi = /* apply GM-Redi */
(PID.TID 0000.0001)                   F
(PID.TID 0000.0001)     ;
(PID.TID 0000.0001) PTRACERS_useDWNSLP = /* apply DOWN-SLOPE Flow */
(PID.TID 0000.0001)                   F
(PID.TID 0000.0001)     ;
(PID.TID 0000.0001) PTRACERS_useKPP = /* apply KPP scheme */
(PID.TID 0000.0001)                   T
(PID.TID 0000.0001)     ;
(PID.TID 0000.0001) PTRACERS_ref = /* Reference vertical profile */
(PID.TID 0000.0001)    35 @  0.000000000000000E+00              /* K =  1: 35 */
(PID.TID 0000.0001)     ;
(PID.TID 0000.0001) PTRACERS_EvPrRn =/* tracer conc. in Evap. & Rain */
(PID.TID 0000.0001)                 1.234567000000000E+05
(PID.TID 0000.0001)     ;
(PID.TID 0000.0001)  -----------------------------------
(PID.TID 0000.0001)  tracer number :    7
(PID.TID 0000.0001) PTRACERS_names = /* Tracer short name */
(PID.TID 0000.0001)               'BIO_1_002'
(PID.TID 0000.0001)     ;
(PID.TID 0000.0001) PTRACERS_long_names = /* Tracer long name */
(PID.TID 0000.0001)               ''
(PID.TID 0000.0001)     ;
(PID.TID 0000.0001) PTRACERS_ioLabel = /* tracer IO Label */
(PID.TID 0000.0001)               '07'
(PID.TID 0000.0001)     ;
(PID.TID 0000.0001) PTRACERS_advScheme = /* Advection Scheme */
(PID.TID 0000.0001)                      33
(PID.TID 0000.0001)     ;
(PID.TID 0000.0001) PTRACERS_SOM_Advection = /* tracer uses SOM advection scheme */
(PID.TID 0000.0001)                   F
(PID.TID 0000.0001)     ;
(PID.TID 0000.0001) PTRACERS_ImplVertAdv = /* implicit vert. advection flag */
(PID.TID 0000.0001)                   F
(PID.TID 0000.0001)     ;
(PID.TID 0000.0001) PTRACERS_diffKh = /* Laplacian Diffusivity */
(PID.TID 0000.0001)                 0.000000000000000E+00
(PID.TID 0000.0001)     ;
(PID.TID 0000.0001) PTRACERS_diffK4 = /* Biharmonic Diffusivity */
(PID.TID 0000.0001)                 0.000000000000000E+00
(PID.TID 0000.0001)     ;
(PID.TID 0000.0001) PTRACERS_diffKrNr = /* Vertical Diffusivity */
(PID.TID 0000.0001)    35 @  1.000000000000000E-05              /* K =  1: 35 */
(PID.TID 0000.0001)     ;
(PID.TID 0000.0001) PTRACERS_useGMRedi = /* apply GM-Redi */
(PID.TID 0000.0001)                   F
(PID.TID 0000.0001)     ;
(PID.TID 0000.0001) PTRACERS_useDWNSLP = /* apply DOWN-SLOPE Flow */
(PID.TID 0000.0001)                   F
(PID.TID 0000.0001)     ;
(PID.TID 0000.0001) PTRACERS_useKPP = /* apply KPP scheme */
(PID.TID 0000.0001)                   T
(PID.TID 0000.0001)     ;
(PID.TID 0000.0001) PTRACERS_ref = /* Reference vertical profile */
(PID.TID 0000.0001)    35 @  0.000000000000000E+00              /* K =  1: 35 */
(PID.TID 0000.0001)     ;
(PID.TID 0000.0001) PTRACERS_EvPrRn =/* tracer conc. in Evap. & Rain */
(PID.TID 0000.0001)                 1.234567000000000E+05
(PID.TID 0000.0001)     ;
(PID.TID 0000.0001)  -----------------------------------
(PID.TID 0000.0001)  tracer number :    8
(PID.TID 0000.0001) PTRACERS_names = /* Tracer short name */
(PID.TID 0000.0001)               'BIO_1_003'
(PID.TID 0000.0001)     ;
(PID.TID 0000.0001) PTRACERS_long_names = /* Tracer long name */
(PID.TID 0000.0001)               ''
(PID.TID 0000.0001)     ;
(PID.TID 0000.0001) PTRACERS_ioLabel = /* tracer IO Label */
(PID.TID 0000.0001)               '08'
(PID.TID 0000.0001)     ;
(PID.TID 0000.0001) PTRACERS_advScheme = /* Advection Scheme */
(PID.TID 0000.0001)                      33
(PID.TID 0000.0001)     ;
(PID.TID 0000.0001) PTRACERS_SOM_Advection = /* tracer uses SOM advection scheme */
(PID.TID 0000.0001)                   F
(PID.TID 0000.0001)     ;
(PID.TID 0000.0001) PTRACERS_ImplVertAdv = /* implicit vert. advection flag */
(PID.TID 0000.0001)                   F
(PID.TID 0000.0001)     ;
(PID.TID 0000.0001) PTRACERS_diffKh = /* Laplacian Diffusivity */
(PID.TID 0000.0001)                 0.000000000000000E+00
(PID.TID 0000.0001)     ;
(PID.TID 0000.0001) PTRACERS_diffK4 = /* Biharmonic Diffusivity */
(PID.TID 0000.0001)                 0.000000000000000E+00
(PID.TID 0000.0001)     ;
(PID.TID 0000.0001) PTRACERS_diffKrNr = /* Vertical Diffusivity */
(PID.TID 0000.0001)    35 @  1.000000000000000E-05              /* K =  1: 35 */
(PID.TID 0000.0001)     ;
(PID.TID 0000.0001) PTRACERS_useGMRedi = /* apply GM-Redi */
(PID.TID 0000.0001)                   F
(PID.TID 0000.0001)     ;
(PID.TID 0000.0001) PTRACERS_useDWNSLP = /* apply DOWN-SLOPE Flow */
(PID.TID 0000.0001)                   F
(PID.TID 0000.0001)     ;
(PID.TID 0000.0001) PTRACERS_useKPP = /* apply KPP scheme */
(PID.TID 0000.0001)                   T
(PID.TID 0000.0001)     ;
(PID.TID 0000.0001) PTRACERS_ref = /* Reference vertical profile */
(PID.TID 0000.0001)    35 @  0.000000000000000E+00              /* K =  1: 35 */
(PID.TID 0000.0001)     ;
(PID.TID 0000.0001) PTRACERS_EvPrRn =/* tracer conc. in Evap. & Rain */
(PID.TID 0000.0001)                 1.234567000000000E+05
(PID.TID 0000.0001)     ;
(PID.TID 0000.0001)  -----------------------------------
(PID.TID 0000.0001)  tracer number :    9
(PID.TID 0000.0001) PTRACERS_names = /* Tracer short name */
(PID.TID 0000.0001)               'BIO_1_004'
(PID.TID 0000.0001)     ;
(PID.TID 0000.0001) PTRACERS_long_names = /* Tracer long name */
(PID.TID 0000.0001)               ''
(PID.TID 0000.0001)     ;
(PID.TID 0000.0001) PTRACERS_ioLabel = /* tracer IO Label */
(PID.TID 0000.0001)               '09'
(PID.TID 0000.0001)     ;
(PID.TID 0000.0001) PTRACERS_advScheme = /* Advection Scheme */
(PID.TID 0000.0001)                      33
(PID.TID 0000.0001)     ;
(PID.TID 0000.0001) PTRACERS_SOM_Advection = /* tracer uses SOM advection scheme */
(PID.TID 0000.0001)                   F
(PID.TID 0000.0001)     ;
(PID.TID 0000.0001) PTRACERS_ImplVertAdv = /* implicit vert. advection flag */
(PID.TID 0000.0001)                   F
(PID.TID 0000.0001)     ;
(PID.TID 0000.0001) PTRACERS_diffKh = /* Laplacian Diffusivity */
(PID.TID 0000.0001)                 0.000000000000000E+00
(PID.TID 0000.0001)     ;
(PID.TID 0000.0001) PTRACERS_diffK4 = /* Biharmonic Diffusivity */
(PID.TID 0000.0001)                 0.000000000000000E+00
(PID.TID 0000.0001)     ;
(PID.TID 0000.0001) PTRACERS_diffKrNr = /* Vertical Diffusivity */
(PID.TID 0000.0001)    35 @  1.000000000000000E-05              /* K =  1: 35 */
(PID.TID 0000.0001)     ;
(PID.TID 0000.0001) PTRACERS_useGMRedi = /* apply GM-Redi */
(PID.TID 0000.0001)                   F
(PID.TID 0000.0001)     ;
(PID.TID 0000.0001) PTRACERS_useDWNSLP = /* apply DOWN-SLOPE Flow */
(PID.TID 0000.0001)                   F
(PID.TID 0000.0001)     ;
(PID.TID 0000.0001) PTRACERS_useKPP = /* apply KPP scheme */
(PID.TID 0000.0001)                   T
(PID.TID 0000.0001)     ;
(PID.TID 0000.0001) PTRACERS_ref = /* Reference vertical profile */
(PID.TID 0000.0001)    35 @  0.000000000000000E+00              /* K =  1: 35 */
(PID.TID 0000.0001)     ;
(PID.TID 0000.0001) PTRACERS_EvPrRn =/* tracer conc. in Evap. & Rain */
(PID.TID 0000.0001)                 1.234567000000000E+05
(PID.TID 0000.0001)     ;
(PID.TID 0000.0001)  -----------------------------------
(PID.TID 0000.0001)  tracer number :   10
(PID.TID 0000.0001) PTRACERS_names = /* Tracer short name */
(PID.TID 0000.0001)               'BIO_1_005'
(PID.TID 0000.0001)     ;
(PID.TID 0000.0001) PTRACERS_long_names = /* Tracer long name */
(PID.TID 0000.0001)               ''
(PID.TID 0000.0001)     ;
(PID.TID 0000.0001) PTRACERS_ioLabel = /* tracer IO Label */
(PID.TID 0000.0001)               '10'
(PID.TID 0000.0001)     ;
(PID.TID 0000.0001) PTRACERS_advScheme = /* Advection Scheme */
(PID.TID 0000.0001)                      33
(PID.TID 0000.0001)     ;
(PID.TID 0000.0001) PTRACERS_SOM_Advection = /* tracer uses SOM advection scheme */
(PID.TID 0000.0001)                   F
(PID.TID 0000.0001)     ;
(PID.TID 0000.0001) PTRACERS_ImplVertAdv = /* implicit vert. advection flag */
(PID.TID 0000.0001)                   F
(PID.TID 0000.0001)     ;
(PID.TID 0000.0001) PTRACERS_diffKh = /* Laplacian Diffusivity */
(PID.TID 0000.0001)                 0.000000000000000E+00
(PID.TID 0000.0001)     ;
(PID.TID 0000.0001) PTRACERS_diffK4 = /* Biharmonic Diffusivity */
(PID.TID 0000.0001)                 0.000000000000000E+00
(PID.TID 0000.0001)     ;
(PID.TID 0000.0001) PTRACERS_diffKrNr = /* Vertical Diffusivity */
(PID.TID 0000.0001)    35 @  1.000000000000000E-05              /* K =  1: 35 */
(PID.TID 0000.0001)     ;
(PID.TID 0000.0001) PTRACERS_useGMRedi = /* apply GM-Redi */
(PID.TID 0000.0001)                   F
(PID.TID 0000.0001)     ;
(PID.TID 0000.0001) PTRACERS_useDWNSLP = /* apply DOWN-SLOPE Flow */
(PID.TID 0000.0001)                   F
(PID.TID 0000.0001)     ;
(PID.TID 0000.0001) PTRACERS_useKPP = /* apply KPP scheme */
(PID.TID 0000.0001)                   T
(PID.TID 0000.0001)     ;
(PID.TID 0000.0001) PTRACERS_ref = /* Reference vertical profile */
(PID.TID 0000.0001)    35 @  0.000000000000000E+00              /* K =  1: 35 */
(PID.TID 0000.0001)     ;
(PID.TID 0000.0001) PTRACERS_EvPrRn =/* tracer conc. in Evap. & Rain */
(PID.TID 0000.0001)                 1.234567000000000E+05
(PID.TID 0000.0001)     ;
(PID.TID 0000.0001)  -----------------------------------
(PID.TID 0000.0001)  tracer number :   11
(PID.TID 0000.0001) PTRACERS_names = /* Tracer short name */
(PID.TID 0000.0001)               'BIO_1_006'
(PID.TID 0000.0001)     ;
(PID.TID 0000.0001) PTRACERS_long_names = /* Tracer long name */
(PID.TID 0000.0001)               ''
(PID.TID 0000.0001)     ;
(PID.TID 0000.0001) PTRACERS_ioLabel = /* tracer IO Label */
(PID.TID 0000.0001)               '11'
(PID.TID 0000.0001)     ;
(PID.TID 0000.0001) PTRACERS_advScheme = /* Advection Scheme */
(PID.TID 0000.0001)                      33
(PID.TID 0000.0001)     ;
(PID.TID 0000.0001) PTRACERS_SOM_Advection = /* tracer uses SOM advection scheme */
(PID.TID 0000.0001)                   F
(PID.TID 0000.0001)     ;
(PID.TID 0000.0001) PTRACERS_ImplVertAdv = /* implicit vert. advection flag */
(PID.TID 0000.0001)                   F
(PID.TID 0000.0001)     ;
(PID.TID 0000.0001) PTRACERS_diffKh = /* Laplacian Diffusivity */
(PID.TID 0000.0001)                 0.000000000000000E+00
(PID.TID 0000.0001)     ;
(PID.TID 0000.0001) PTRACERS_diffK4 = /* Biharmonic Diffusivity */
(PID.TID 0000.0001)                 0.000000000000000E+00
(PID.TID 0000.0001)     ;
(PID.TID 0000.0001) PTRACERS_diffKrNr = /* Vertical Diffusivity */
(PID.TID 0000.0001)    35 @  1.000000000000000E-05              /* K =  1: 35 */
(PID.TID 0000.0001)     ;
(PID.TID 0000.0001) PTRACERS_useGMRedi = /* apply GM-Redi */
(PID.TID 0000.0001)                   F
(PID.TID 0000.0001)     ;
(PID.TID 0000.0001) PTRACERS_useDWNSLP = /* apply DOWN-SLOPE Flow */
(PID.TID 0000.0001)                   F
(PID.TID 0000.0001)     ;
(PID.TID 0000.0001) PTRACERS_useKPP = /* apply KPP scheme */
(PID.TID 0000.0001)                   T
(PID.TID 0000.0001)     ;
(PID.TID 0000.0001) PTRACERS_ref = /* Reference vertical profile */
(PID.TID 0000.0001)    35 @  0.000000000000000E+00              /* K =  1: 35 */
(PID.TID 0000.0001)     ;
(PID.TID 0000.0001) PTRACERS_EvPrRn =/* tracer conc. in Evap. & Rain */
(PID.TID 0000.0001)                 1.234567000000000E+05
(PID.TID 0000.0001)     ;
(PID.TID 0000.0001)  -----------------------------------
(PID.TID 0000.0001)  tracer number :   12
(PID.TID 0000.0001) PTRACERS_names = /* Tracer short name */
(PID.TID 0000.0001)               'BIO_1_007'
(PID.TID 0000.0001)     ;
(PID.TID 0000.0001) PTRACERS_long_names = /* Tracer long name */
(PID.TID 0000.0001)               ''
(PID.TID 0000.0001)     ;
(PID.TID 0000.0001) PTRACERS_ioLabel = /* tracer IO Label */
(PID.TID 0000.0001)               '12'
(PID.TID 0000.0001)     ;
(PID.TID 0000.0001) PTRACERS_advScheme = /* Advection Scheme */
(PID.TID 0000.0001)                      33
(PID.TID 0000.0001)     ;
(PID.TID 0000.0001) PTRACERS_SOM_Advection = /* tracer uses SOM advection scheme */
(PID.TID 0000.0001)                   F
(PID.TID 0000.0001)     ;
(PID.TID 0000.0001) PTRACERS_ImplVertAdv = /* implicit vert. advection flag */
(PID.TID 0000.0001)                   F
(PID.TID 0000.0001)     ;
(PID.TID 0000.0001) PTRACERS_diffKh = /* Laplacian Diffusivity */
(PID.TID 0000.0001)                 0.000000000000000E+00
(PID.TID 0000.0001)     ;
(PID.TID 0000.0001) PTRACERS_diffK4 = /* Biharmonic Diffusivity */
(PID.TID 0000.0001)                 0.000000000000000E+00
(PID.TID 0000.0001)     ;
(PID.TID 0000.0001) PTRACERS_diffKrNr = /* Vertical Diffusivity */
(PID.TID 0000.0001)    35 @  1.000000000000000E-05              /* K =  1: 35 */
(PID.TID 0000.0001)     ;
(PID.TID 0000.0001) PTRACERS_useGMRedi = /* apply GM-Redi */
(PID.TID 0000.0001)                   F
(PID.TID 0000.0001)     ;
(PID.TID 0000.0001) PTRACERS_useDWNSLP = /* apply DOWN-SLOPE Flow */
(PID.TID 0000.0001)                   F
(PID.TID 0000.0001)     ;
(PID.TID 0000.0001) PTRACERS_useKPP = /* apply KPP scheme */
(PID.TID 0000.0001)                   T
(PID.TID 0000.0001)     ;
(PID.TID 0000.0001) PTRACERS_ref = /* Reference vertical profile */
(PID.TID 0000.0001)    35 @  0.000000000000000E+00              /* K =  1: 35 */
(PID.TID 0000.0001)     ;
(PID.TID 0000.0001) PTRACERS_EvPrRn =/* tracer conc. in Evap. & Rain */
(PID.TID 0000.0001)                 1.234567000000000E+05
(PID.TID 0000.0001)     ;
(PID.TID 0000.0001)  -----------------------------------
(PID.TID 0000.0001)  tracer number :   13
(PID.TID 0000.0001) PTRACERS_names = /* Tracer short name */
(PID.TID 0000.0001)               'BIO_1_008'
(PID.TID 0000.0001)     ;
(PID.TID 0000.0001) PTRACERS_long_names = /* Tracer long name */
(PID.TID 0000.0001)               ''
(PID.TID 0000.0001)     ;
(PID.TID 0000.0001) PTRACERS_ioLabel = /* tracer IO Label */
(PID.TID 0000.0001)               '13'
(PID.TID 0000.0001)     ;
(PID.TID 0000.0001) PTRACERS_advScheme = /* Advection Scheme */
(PID.TID 0000.0001)                      33
(PID.TID 0000.0001)     ;
(PID.TID 0000.0001) PTRACERS_SOM_Advection = /* tracer uses SOM advection scheme */
(PID.TID 0000.0001)                   F
(PID.TID 0000.0001)     ;
(PID.TID 0000.0001) PTRACERS_ImplVertAdv = /* implicit vert. advection flag */
(PID.TID 0000.0001)                   F
(PID.TID 0000.0001)     ;
(PID.TID 0000.0001) PTRACERS_diffKh = /* Laplacian Diffusivity */
(PID.TID 0000.0001)                 0.000000000000000E+00
(PID.TID 0000.0001)     ;
(PID.TID 0000.0001) PTRACERS_diffK4 = /* Biharmonic Diffusivity */
(PID.TID 0000.0001)                 0.000000000000000E+00
(PID.TID 0000.0001)     ;
(PID.TID 0000.0001) PTRACERS_diffKrNr = /* Vertical Diffusivity */
(PID.TID 0000.0001)    35 @  1.000000000000000E-05              /* K =  1: 35 */
(PID.TID 0000.0001)     ;
(PID.TID 0000.0001) PTRACERS_useGMRedi = /* apply GM-Redi */
(PID.TID 0000.0001)                   F
(PID.TID 0000.0001)     ;
(PID.TID 0000.0001) PTRACERS_useDWNSLP = /* apply DOWN-SLOPE Flow */
(PID.TID 0000.0001)                   F
(PID.TID 0000.0001)     ;
(PID.TID 0000.0001) PTRACERS_useKPP = /* apply KPP scheme */
(PID.TID 0000.0001)                   T
(PID.TID 0000.0001)     ;
(PID.TID 0000.0001) PTRACERS_ref = /* Reference vertical profile */
(PID.TID 0000.0001)    35 @  0.000000000000000E+00              /* K =  1: 35 */
(PID.TID 0000.0001)     ;
(PID.TID 0000.0001) PTRACERS_EvPrRn =/* tracer conc. in Evap. & Rain */
(PID.TID 0000.0001)                 1.234567000000000E+05
(PID.TID 0000.0001)     ;
(PID.TID 0000.0001)  -----------------------------------
(PID.TID 0000.0001)  tracer number :   14
(PID.TID 0000.0001) PTRACERS_names = /* Tracer short name */
(PID.TID 0000.0001)               'BIO_1_009'
(PID.TID 0000.0001)     ;
(PID.TID 0000.0001) PTRACERS_long_names = /* Tracer long name */
(PID.TID 0000.0001)               ''
(PID.TID 0000.0001)     ;
(PID.TID 0000.0001) PTRACERS_ioLabel = /* tracer IO Label */
(PID.TID 0000.0001)               '14'
(PID.TID 0000.0001)     ;
(PID.TID 0000.0001) PTRACERS_advScheme = /* Advection Scheme */
(PID.TID 0000.0001)                      33
(PID.TID 0000.0001)     ;
(PID.TID 0000.0001) PTRACERS_SOM_Advection = /* tracer uses SOM advection scheme */
(PID.TID 0000.0001)                   F
(PID.TID 0000.0001)     ;
(PID.TID 0000.0001) PTRACERS_ImplVertAdv = /* implicit vert. advection flag */
(PID.TID 0000.0001)                   F
(PID.TID 0000.0001)     ;
(PID.TID 0000.0001) PTRACERS_diffKh = /* Laplacian Diffusivity */
(PID.TID 0000.0001)                 0.000000000000000E+00
(PID.TID 0000.0001)     ;
(PID.TID 0000.0001) PTRACERS_diffK4 = /* Biharmonic Diffusivity */
(PID.TID 0000.0001)                 0.000000000000000E+00
(PID.TID 0000.0001)     ;
(PID.TID 0000.0001) PTRACERS_diffKrNr = /* Vertical Diffusivity */
(PID.TID 0000.0001)    35 @  1.000000000000000E-05              /* K =  1: 35 */
(PID.TID 0000.0001)     ;
(PID.TID 0000.0001) PTRACERS_useGMRedi = /* apply GM-Redi */
(PID.TID 0000.0001)                   F
(PID.TID 0000.0001)     ;
(PID.TID 0000.0001) PTRACERS_useDWNSLP = /* apply DOWN-SLOPE Flow */
(PID.TID 0000.0001)                   F
(PID.TID 0000.0001)     ;
(PID.TID 0000.0001) PTRACERS_useKPP = /* apply KPP scheme */
(PID.TID 0000.0001)                   T
(PID.TID 0000.0001)     ;
(PID.TID 0000.0001) PTRACERS_ref = /* Reference vertical profile */
(PID.TID 0000.0001)    35 @  0.000000000000000E+00              /* K =  1: 35 */
(PID.TID 0000.0001)     ;
(PID.TID 0000.0001) PTRACERS_EvPrRn =/* tracer conc. in Evap. & Rain */
(PID.TID 0000.0001)                 1.234567000000000E+05
(PID.TID 0000.0001)     ;
(PID.TID 0000.0001)  -----------------------------------
(PID.TID 0000.0001)  tracer number :   15
(PID.TID 0000.0001) PTRACERS_names = /* Tracer short name */
(PID.TID 0000.0001)               'BIO_1_010'
(PID.TID 0000.0001)     ;
(PID.TID 0000.0001) PTRACERS_long_names = /* Tracer long name */
(PID.TID 0000.0001)               ''
(PID.TID 0000.0001)     ;
(PID.TID 0000.0001) PTRACERS_ioLabel = /* tracer IO Label */
(PID.TID 0000.0001)               '15'
(PID.TID 0000.0001)     ;
(PID.TID 0000.0001) PTRACERS_advScheme = /* Advection Scheme */
(PID.TID 0000.0001)                      33
(PID.TID 0000.0001)     ;
(PID.TID 0000.0001) PTRACERS_SOM_Advection = /* tracer uses SOM advection scheme */
(PID.TID 0000.0001)                   F
(PID.TID 0000.0001)     ;
(PID.TID 0000.0001) PTRACERS_ImplVertAdv = /* implicit vert. advection flag */
(PID.TID 0000.0001)                   F
(PID.TID 0000.0001)     ;
(PID.TID 0000.0001) PTRACERS_diffKh = /* Laplacian Diffusivity */
(PID.TID 0000.0001)                 0.000000000000000E+00
(PID.TID 0000.0001)     ;
(PID.TID 0000.0001) PTRACERS_diffK4 = /* Biharmonic Diffusivity */
(PID.TID 0000.0001)                 0.000000000000000E+00
(PID.TID 0000.0001)     ;
(PID.TID 0000.0001) PTRACERS_diffKrNr = /* Vertical Diffusivity */
(PID.TID 0000.0001)    35 @  1.000000000000000E-05              /* K =  1: 35 */
(PID.TID 0000.0001)     ;
(PID.TID 0000.0001) PTRACERS_useGMRedi = /* apply GM-Redi */
(PID.TID 0000.0001)                   F
(PID.TID 0000.0001)     ;
(PID.TID 0000.0001) PTRACERS_useDWNSLP = /* apply DOWN-SLOPE Flow */
(PID.TID 0000.0001)                   F
(PID.TID 0000.0001)     ;
(PID.TID 0000.0001) PTRACERS_useKPP = /* apply KPP scheme */
(PID.TID 0000.0001)                   T
(PID.TID 0000.0001)     ;
(PID.TID 0000.0001) PTRACERS_ref = /* Reference vertical profile */
(PID.TID 0000.0001)    35 @  0.000000000000000E+00              /* K =  1: 35 */
(PID.TID 0000.0001)     ;
(PID.TID 0000.0001) PTRACERS_EvPrRn =/* tracer conc. in Evap. & Rain */
(PID.TID 0000.0001)                 1.234567000000000E+05
(PID.TID 0000.0001)     ;
(PID.TID 0000.0001)  -----------------------------------
(PID.TID 0000.0001)  tracer number :   16
(PID.TID 0000.0001) PTRACERS_names = /* Tracer short name */
(PID.TID 0000.0001)               'BIO_1_011'
(PID.TID 0000.0001)     ;
(PID.TID 0000.0001) PTRACERS_long_names = /* Tracer long name */
(PID.TID 0000.0001)               ''
(PID.TID 0000.0001)     ;
(PID.TID 0000.0001) PTRACERS_ioLabel = /* tracer IO Label */
(PID.TID 0000.0001)               '16'
(PID.TID 0000.0001)     ;
(PID.TID 0000.0001) PTRACERS_advScheme = /* Advection Scheme */
(PID.TID 0000.0001)                      33
(PID.TID 0000.0001)     ;
(PID.TID 0000.0001) PTRACERS_SOM_Advection = /* tracer uses SOM advection scheme */
(PID.TID 0000.0001)                   F
(PID.TID 0000.0001)     ;
(PID.TID 0000.0001) PTRACERS_ImplVertAdv = /* implicit vert. advection flag */
(PID.TID 0000.0001)                   F
(PID.TID 0000.0001)     ;
(PID.TID 0000.0001) PTRACERS_diffKh = /* Laplacian Diffusivity */
(PID.TID 0000.0001)                 0.000000000000000E+00
(PID.TID 0000.0001)     ;
(PID.TID 0000.0001) PTRACERS_diffK4 = /* Biharmonic Diffusivity */
(PID.TID 0000.0001)                 0.000000000000000E+00
(PID.TID 0000.0001)     ;
(PID.TID 0000.0001) PTRACERS_diffKrNr = /* Vertical Diffusivity */
(PID.TID 0000.0001)    35 @  1.000000000000000E-05              /* K =  1: 35 */
(PID.TID 0000.0001)     ;
(PID.TID 0000.0001) PTRACERS_useGMRedi = /* apply GM-Redi */
(PID.TID 0000.0001)                   F
(PID.TID 0000.0001)     ;
(PID.TID 0000.0001) PTRACERS_useDWNSLP = /* apply DOWN-SLOPE Flow */
(PID.TID 0000.0001)                   F
(PID.TID 0000.0001)     ;
(PID.TID 0000.0001) PTRACERS_useKPP = /* apply KPP scheme */
(PID.TID 0000.0001)                   T
(PID.TID 0000.0001)     ;
(PID.TID 0000.0001) PTRACERS_ref = /* Reference vertical profile */
(PID.TID 0000.0001)    35 @  0.000000000000000E+00              /* K =  1: 35 */
(PID.TID 0000.0001)     ;
(PID.TID 0000.0001) PTRACERS_EvPrRn =/* tracer conc. in Evap. & Rain */
(PID.TID 0000.0001)                 1.234567000000000E+05
(PID.TID 0000.0001)     ;
(PID.TID 0000.0001)  -----------------------------------
(PID.TID 0000.0001)  tracer number :   17
(PID.TID 0000.0001) PTRACERS_names = /* Tracer short name */
(PID.TID 0000.0001)               'BIO_1_012'
(PID.TID 0000.0001)     ;
(PID.TID 0000.0001) PTRACERS_long_names = /* Tracer long name */
(PID.TID 0000.0001)               ''
(PID.TID 0000.0001)     ;
(PID.TID 0000.0001) PTRACERS_ioLabel = /* tracer IO Label */
(PID.TID 0000.0001)               '17'
(PID.TID 0000.0001)     ;
(PID.TID 0000.0001) PTRACERS_advScheme = /* Advection Scheme */
(PID.TID 0000.0001)                      33
(PID.TID 0000.0001)     ;
(PID.TID 0000.0001) PTRACERS_SOM_Advection = /* tracer uses SOM advection scheme */
(PID.TID 0000.0001)                   F
(PID.TID 0000.0001)     ;
(PID.TID 0000.0001) PTRACERS_ImplVertAdv = /* implicit vert. advection flag */
(PID.TID 0000.0001)                   F
(PID.TID 0000.0001)     ;
(PID.TID 0000.0001) PTRACERS_diffKh = /* Laplacian Diffusivity */
(PID.TID 0000.0001)                 0.000000000000000E+00
(PID.TID 0000.0001)     ;
(PID.TID 0000.0001) PTRACERS_diffK4 = /* Biharmonic Diffusivity */
(PID.TID 0000.0001)                 0.000000000000000E+00
(PID.TID 0000.0001)     ;
(PID.TID 0000.0001) PTRACERS_diffKrNr = /* Vertical Diffusivity */
(PID.TID 0000.0001)    35 @  1.000000000000000E-05              /* K =  1: 35 */
(PID.TID 0000.0001)     ;
(PID.TID 0000.0001) PTRACERS_useGMRedi = /* apply GM-Redi */
(PID.TID 0000.0001)                   F
(PID.TID 0000.0001)     ;
(PID.TID 0000.0001) PTRACERS_useDWNSLP = /* apply DOWN-SLOPE Flow */
(PID.TID 0000.0001)                   F
(PID.TID 0000.0001)     ;
(PID.TID 0000.0001) PTRACERS_useKPP = /* apply KPP scheme */
(PID.TID 0000.0001)                   T
(PID.TID 0000.0001)     ;
(PID.TID 0000.0001) PTRACERS_ref = /* Reference vertical profile */
(PID.TID 0000.0001)    35 @  0.000000000000000E+00              /* K =  1: 35 */
(PID.TID 0000.0001)     ;
(PID.TID 0000.0001) PTRACERS_EvPrRn =/* tracer conc. in Evap. & Rain */
(PID.TID 0000.0001)                 1.234567000000000E+05
(PID.TID 0000.0001)     ;
(PID.TID 0000.0001)  -----------------------------------
(PID.TID 0000.0001)  tracer number :   18
(PID.TID 0000.0001) PTRACERS_names = /* Tracer short name */
(PID.TID 0000.0001)               'BIO_1_013'
(PID.TID 0000.0001)     ;
(PID.TID 0000.0001) PTRACERS_long_names = /* Tracer long name */
(PID.TID 0000.0001)               ''
(PID.TID 0000.0001)     ;
(PID.TID 0000.0001) PTRACERS_ioLabel = /* tracer IO Label */
(PID.TID 0000.0001)               '18'
(PID.TID 0000.0001)     ;
(PID.TID 0000.0001) PTRACERS_advScheme = /* Advection Scheme */
(PID.TID 0000.0001)                      33
(PID.TID 0000.0001)     ;
(PID.TID 0000.0001) PTRACERS_SOM_Advection = /* tracer uses SOM advection scheme */
(PID.TID 0000.0001)                   F
(PID.TID 0000.0001)     ;
(PID.TID 0000.0001) PTRACERS_ImplVertAdv = /* implicit vert. advection flag */
(PID.TID 0000.0001)                   F
(PID.TID 0000.0001)     ;
(PID.TID 0000.0001) PTRACERS_diffKh = /* Laplacian Diffusivity */
(PID.TID 0000.0001)                 0.000000000000000E+00
(PID.TID 0000.0001)     ;
(PID.TID 0000.0001) PTRACERS_diffK4 = /* Biharmonic Diffusivity */
(PID.TID 0000.0001)                 0.000000000000000E+00
(PID.TID 0000.0001)     ;
(PID.TID 0000.0001) PTRACERS_diffKrNr = /* Vertical Diffusivity */
(PID.TID 0000.0001)    35 @  1.000000000000000E-05              /* K =  1: 35 */
(PID.TID 0000.0001)     ;
(PID.TID 0000.0001) PTRACERS_useGMRedi = /* apply GM-Redi */
(PID.TID 0000.0001)                   F
(PID.TID 0000.0001)     ;
(PID.TID 0000.0001) PTRACERS_useDWNSLP = /* apply DOWN-SLOPE Flow */
(PID.TID 0000.0001)                   F
(PID.TID 0000.0001)     ;
(PID.TID 0000.0001) PTRACERS_useKPP = /* apply KPP scheme */
(PID.TID 0000.0001)                   T
(PID.TID 0000.0001)     ;
(PID.TID 0000.0001) PTRACERS_ref = /* Reference vertical profile */
(PID.TID 0000.0001)    35 @  0.000000000000000E+00              /* K =  1: 35 */
(PID.TID 0000.0001)     ;
(PID.TID 0000.0001) PTRACERS_EvPrRn =/* tracer conc. in Evap. & Rain */
(PID.TID 0000.0001)                 1.234567000000000E+05
(PID.TID 0000.0001)     ;
(PID.TID 0000.0001)  -----------------------------------
(PID.TID 0000.0001)  tracer number :   19
(PID.TID 0000.0001) PTRACERS_names = /* Tracer short name */
(PID.TID 0000.0001)               'BIO_1_014'
(PID.TID 0000.0001)     ;
(PID.TID 0000.0001) PTRACERS_long_names = /* Tracer long name */
(PID.TID 0000.0001)               ''
(PID.TID 0000.0001)     ;
(PID.TID 0000.0001) PTRACERS_ioLabel = /* tracer IO Label */
(PID.TID 0000.0001)               '19'
(PID.TID 0000.0001)     ;
(PID.TID 0000.0001) PTRACERS_advScheme = /* Advection Scheme */
(PID.TID 0000.0001)                      33
(PID.TID 0000.0001)     ;
(PID.TID 0000.0001) PTRACERS_SOM_Advection = /* tracer uses SOM advection scheme */
(PID.TID 0000.0001)                   F
(PID.TID 0000.0001)     ;
(PID.TID 0000.0001) PTRACERS_ImplVertAdv = /* implicit vert. advection flag */
(PID.TID 0000.0001)                   F
(PID.TID 0000.0001)     ;
(PID.TID 0000.0001) PTRACERS_diffKh = /* Laplacian Diffusivity */
(PID.TID 0000.0001)                 0.000000000000000E+00
(PID.TID 0000.0001)     ;
(PID.TID 0000.0001) PTRACERS_diffK4 = /* Biharmonic Diffusivity */
(PID.TID 0000.0001)                 0.000000000000000E+00
(PID.TID 0000.0001)     ;
(PID.TID 0000.0001) PTRACERS_diffKrNr = /* Vertical Diffusivity */
(PID.TID 0000.0001)    35 @  1.000000000000000E-05              /* K =  1: 35 */
(PID.TID 0000.0001)     ;
(PID.TID 0000.0001) PTRACERS_useGMRedi = /* apply GM-Redi */
(PID.TID 0000.0001)                   F
(PID.TID 0000.0001)     ;
(PID.TID 0000.0001) PTRACERS_useDWNSLP = /* apply DOWN-SLOPE Flow */
(PID.TID 0000.0001)                   F
(PID.TID 0000.0001)     ;
(PID.TID 0000.0001) PTRACERS_useKPP = /* apply KPP scheme */
(PID.TID 0000.0001)                   T
(PID.TID 0000.0001)     ;
(PID.TID 0000.0001) PTRACERS_ref = /* Reference vertical profile */
(PID.TID 0000.0001)    35 @  0.000000000000000E+00              /* K =  1: 35 */
(PID.TID 0000.0001)     ;
(PID.TID 0000.0001) PTRACERS_EvPrRn =/* tracer conc. in Evap. & Rain */
(PID.TID 0000.0001)                 1.234567000000000E+05
(PID.TID 0000.0001)     ;
(PID.TID 0000.0001)  -----------------------------------
(PID.TID 0000.0001)  tracer number :   20
(PID.TID 0000.0001) PTRACERS_names = /* Tracer short name */
(PID.TID 0000.0001)               'BIO_1_015'
(PID.TID 0000.0001)     ;
(PID.TID 0000.0001) PTRACERS_long_names = /* Tracer long name */
(PID.TID 0000.0001)               ''
(PID.TID 0000.0001)     ;
(PID.TID 0000.0001) PTRACERS_ioLabel = /* tracer IO Label */
(PID.TID 0000.0001)               '20'
(PID.TID 0000.0001)     ;
(PID.TID 0000.0001) PTRACERS_advScheme = /* Advection Scheme */
(PID.TID 0000.0001)                      33
(PID.TID 0000.0001)     ;
(PID.TID 0000.0001) PTRACERS_SOM_Advection = /* tracer uses SOM advection scheme */
(PID.TID 0000.0001)                   F
(PID.TID 0000.0001)     ;
(PID.TID 0000.0001) PTRACERS_ImplVertAdv = /* implicit vert. advection flag */
(PID.TID 0000.0001)                   F
(PID.TID 0000.0001)     ;
(PID.TID 0000.0001) PTRACERS_diffKh = /* Laplacian Diffusivity */
(PID.TID 0000.0001)                 0.000000000000000E+00
(PID.TID 0000.0001)     ;
(PID.TID 0000.0001) PTRACERS_diffK4 = /* Biharmonic Diffusivity */
(PID.TID 0000.0001)                 0.000000000000000E+00
(PID.TID 0000.0001)     ;
(PID.TID 0000.0001) PTRACERS_diffKrNr = /* Vertical Diffusivity */
(PID.TID 0000.0001)    35 @  1.000000000000000E-05              /* K =  1: 35 */
(PID.TID 0000.0001)     ;
(PID.TID 0000.0001) PTRACERS_useGMRedi = /* apply GM-Redi */
(PID.TID 0000.0001)                   F
(PID.TID 0000.0001)     ;
(PID.TID 0000.0001) PTRACERS_useDWNSLP = /* apply DOWN-SLOPE Flow */
(PID.TID 0000.0001)                   F
(PID.TID 0000.0001)     ;
(PID.TID 0000.0001) PTRACERS_useKPP = /* apply KPP scheme */
(PID.TID 0000.0001)                   T
(PID.TID 0000.0001)     ;
(PID.TID 0000.0001) PTRACERS_ref = /* Reference vertical profile */
(PID.TID 0000.0001)    35 @  0.000000000000000E+00              /* K =  1: 35 */
(PID.TID 0000.0001)     ;
(PID.TID 0000.0001) PTRACERS_EvPrRn =/* tracer conc. in Evap. & Rain */
(PID.TID 0000.0001)                 1.234567000000000E+05
(PID.TID 0000.0001)     ;
(PID.TID 0000.0001)  -----------------------------------
(PID.TID 0000.0001)  tracer number :   21
(PID.TID 0000.0001) PTRACERS_names = /* Tracer short name */
(PID.TID 0000.0001)               'BIO_1_016'
(PID.TID 0000.0001)     ;
(PID.TID 0000.0001) PTRACERS_long_names = /* Tracer long name */
(PID.TID 0000.0001)               ''
(PID.TID 0000.0001)     ;
(PID.TID 0000.0001) PTRACERS_ioLabel = /* tracer IO Label */
(PID.TID 0000.0001)               '21'
(PID.TID 0000.0001)     ;
(PID.TID 0000.0001) PTRACERS_advScheme = /* Advection Scheme */
(PID.TID 0000.0001)                      33
(PID.TID 0000.0001)     ;
(PID.TID 0000.0001) PTRACERS_SOM_Advection = /* tracer uses SOM advection scheme */
(PID.TID 0000.0001)                   F
(PID.TID 0000.0001)     ;
(PID.TID 0000.0001) PTRACERS_ImplVertAdv = /* implicit vert. advection flag */
(PID.TID 0000.0001)                   F
(PID.TID 0000.0001)     ;
(PID.TID 0000.0001) PTRACERS_diffKh = /* Laplacian Diffusivity */
(PID.TID 0000.0001)                 0.000000000000000E+00
(PID.TID 0000.0001)     ;
(PID.TID 0000.0001) PTRACERS_diffK4 = /* Biharmonic Diffusivity */
(PID.TID 0000.0001)                 0.000000000000000E+00
(PID.TID 0000.0001)     ;
(PID.TID 0000.0001) PTRACERS_diffKrNr = /* Vertical Diffusivity */
(PID.TID 0000.0001)    35 @  1.000000000000000E-05              /* K =  1: 35 */
(PID.TID 0000.0001)     ;
(PID.TID 0000.0001) PTRACERS_useGMRedi = /* apply GM-Redi */
(PID.TID 0000.0001)                   F
(PID.TID 0000.0001)     ;
(PID.TID 0000.0001) PTRACERS_useDWNSLP = /* apply DOWN-SLOPE Flow */
(PID.TID 0000.0001)                   F
(PID.TID 0000.0001)     ;
(PID.TID 0000.0001) PTRACERS_useKPP = /* apply KPP scheme */
(PID.TID 0000.0001)                   T
(PID.TID 0000.0001)     ;
(PID.TID 0000.0001) PTRACERS_ref = /* Reference vertical profile */
(PID.TID 0000.0001)    35 @  0.000000000000000E+00              /* K =  1: 35 */
(PID.TID 0000.0001)     ;
(PID.TID 0000.0001) PTRACERS_EvPrRn =/* tracer conc. in Evap. & Rain */
(PID.TID 0000.0001)                 1.234567000000000E+05
(PID.TID 0000.0001)     ;
(PID.TID 0000.0001)  -----------------------------------
(PID.TID 0000.0001)  tracer number :   22
(PID.TID 0000.0001) PTRACERS_names = /* Tracer short name */
(PID.TID 0000.0001)               'BIO_2_001'
(PID.TID 0000.0001)     ;
(PID.TID 0000.0001) PTRACERS_long_names = /* Tracer long name */
(PID.TID 0000.0001)               ''
(PID.TID 0000.0001)     ;
(PID.TID 0000.0001) PTRACERS_ioLabel = /* tracer IO Label */
(PID.TID 0000.0001)               '22'
(PID.TID 0000.0001)     ;
(PID.TID 0000.0001) PTRACERS_advScheme = /* Advection Scheme */
(PID.TID 0000.0001)                      33
(PID.TID 0000.0001)     ;
(PID.TID 0000.0001) PTRACERS_SOM_Advection = /* tracer uses SOM advection scheme */
(PID.TID 0000.0001)                   F
(PID.TID 0000.0001)     ;
(PID.TID 0000.0001) PTRACERS_ImplVertAdv = /* implicit vert. advection flag */
(PID.TID 0000.0001)                   F
(PID.TID 0000.0001)     ;
(PID.TID 0000.0001) PTRACERS_diffKh = /* Laplacian Diffusivity */
(PID.TID 0000.0001)                 0.000000000000000E+00
(PID.TID 0000.0001)     ;
(PID.TID 0000.0001) PTRACERS_diffK4 = /* Biharmonic Diffusivity */
(PID.TID 0000.0001)                 0.000000000000000E+00
(PID.TID 0000.0001)     ;
(PID.TID 0000.0001) PTRACERS_diffKrNr = /* Vertical Diffusivity */
(PID.TID 0000.0001)    35 @  1.000000000000000E-05              /* K =  1: 35 */
(PID.TID 0000.0001)     ;
(PID.TID 0000.0001) PTRACERS_useGMRedi = /* apply GM-Redi */
(PID.TID 0000.0001)                   F
(PID.TID 0000.0001)     ;
(PID.TID 0000.0001) PTRACERS_useDWNSLP = /* apply DOWN-SLOPE Flow */
(PID.TID 0000.0001)                   F
(PID.TID 0000.0001)     ;
(PID.TID 0000.0001) PTRACERS_useKPP = /* apply KPP scheme */
(PID.TID 0000.0001)                   T
(PID.TID 0000.0001)     ;
(PID.TID 0000.0001) PTRACERS_ref = /* Reference vertical profile */
(PID.TID 0000.0001)    35 @  0.000000000000000E+00              /* K =  1: 35 */
(PID.TID 0000.0001)     ;
(PID.TID 0000.0001) PTRACERS_EvPrRn =/* tracer conc. in Evap. & Rain */
(PID.TID 0000.0001)                 1.234567000000000E+05
(PID.TID 0000.0001)     ;
(PID.TID 0000.0001)  -----------------------------------
(PID.TID 0000.0001)  tracer number :   23
(PID.TID 0000.0001) PTRACERS_names = /* Tracer short name */
(PID.TID 0000.0001)               'BIO_2_002'
(PID.TID 0000.0001)     ;
(PID.TID 0000.0001) PTRACERS_long_names = /* Tracer long name */
(PID.TID 0000.0001)               ''
(PID.TID 0000.0001)     ;
(PID.TID 0000.0001) PTRACERS_ioLabel = /* tracer IO Label */
(PID.TID 0000.0001)               '23'
(PID.TID 0000.0001)     ;
(PID.TID 0000.0001) PTRACERS_advScheme = /* Advection Scheme */
(PID.TID 0000.0001)                      33
(PID.TID 0000.0001)     ;
(PID.TID 0000.0001) PTRACERS_SOM_Advection = /* tracer uses SOM advection scheme */
(PID.TID 0000.0001)                   F
(PID.TID 0000.0001)     ;
(PID.TID 0000.0001) PTRACERS_ImplVertAdv = /* implicit vert. advection flag */
(PID.TID 0000.0001)                   F
(PID.TID 0000.0001)     ;
(PID.TID 0000.0001) PTRACERS_diffKh = /* Laplacian Diffusivity */
(PID.TID 0000.0001)                 0.000000000000000E+00
(PID.TID 0000.0001)     ;
(PID.TID 0000.0001) PTRACERS_diffK4 = /* Biharmonic Diffusivity */
(PID.TID 0000.0001)                 0.000000000000000E+00
(PID.TID 0000.0001)     ;
(PID.TID 0000.0001) PTRACERS_diffKrNr = /* Vertical Diffusivity */
(PID.TID 0000.0001)    35 @  1.000000000000000E-05              /* K =  1: 35 */
(PID.TID 0000.0001)     ;
(PID.TID 0000.0001) PTRACERS_useGMRedi = /* apply GM-Redi */
(PID.TID 0000.0001)                   F
(PID.TID 0000.0001)     ;
(PID.TID 0000.0001) PTRACERS_useDWNSLP = /* apply DOWN-SLOPE Flow */
(PID.TID 0000.0001)                   F
(PID.TID 0000.0001)     ;
(PID.TID 0000.0001) PTRACERS_useKPP = /* apply KPP scheme */
(PID.TID 0000.0001)                   T
(PID.TID 0000.0001)     ;
(PID.TID 0000.0001) PTRACERS_ref = /* Reference vertical profile */
(PID.TID 0000.0001)    35 @  0.000000000000000E+00              /* K =  1: 35 */
(PID.TID 0000.0001)     ;
(PID.TID 0000.0001) PTRACERS_EvPrRn =/* tracer conc. in Evap. & Rain */
(PID.TID 0000.0001)                 1.234567000000000E+05
(PID.TID 0000.0001)     ;
(PID.TID 0000.0001)  -----------------------------------
(PID.TID 0000.0001)  tracer number :   24
(PID.TID 0000.0001) PTRACERS_names = /* Tracer short name */
(PID.TID 0000.0001)               'BIO_2_003'
(PID.TID 0000.0001)     ;
(PID.TID 0000.0001) PTRACERS_long_names = /* Tracer long name */
(PID.TID 0000.0001)               ''
(PID.TID 0000.0001)     ;
(PID.TID 0000.0001) PTRACERS_ioLabel = /* tracer IO Label */
(PID.TID 0000.0001)               '24'
(PID.TID 0000.0001)     ;
(PID.TID 0000.0001) PTRACERS_advScheme = /* Advection Scheme */
(PID.TID 0000.0001)                      33
(PID.TID 0000.0001)     ;
(PID.TID 0000.0001) PTRACERS_SOM_Advection = /* tracer uses SOM advection scheme */
(PID.TID 0000.0001)                   F
(PID.TID 0000.0001)     ;
(PID.TID 0000.0001) PTRACERS_ImplVertAdv = /* implicit vert. advection flag */
(PID.TID 0000.0001)                   F
(PID.TID 0000.0001)     ;
(PID.TID 0000.0001) PTRACERS_diffKh = /* Laplacian Diffusivity */
(PID.TID 0000.0001)                 0.000000000000000E+00
(PID.TID 0000.0001)     ;
(PID.TID 0000.0001) PTRACERS_diffK4 = /* Biharmonic Diffusivity */
(PID.TID 0000.0001)                 0.000000000000000E+00
(PID.TID 0000.0001)     ;
(PID.TID 0000.0001) PTRACERS_diffKrNr = /* Vertical Diffusivity */
(PID.TID 0000.0001)    35 @  1.000000000000000E-05              /* K =  1: 35 */
(PID.TID 0000.0001)     ;
(PID.TID 0000.0001) PTRACERS_useGMRedi = /* apply GM-Redi */
(PID.TID 0000.0001)                   F
(PID.TID 0000.0001)     ;
(PID.TID 0000.0001) PTRACERS_useDWNSLP = /* apply DOWN-SLOPE Flow */
(PID.TID 0000.0001)                   F
(PID.TID 0000.0001)     ;
(PID.TID 0000.0001) PTRACERS_useKPP = /* apply KPP scheme */
(PID.TID 0000.0001)                   T
(PID.TID 0000.0001)     ;
(PID.TID 0000.0001) PTRACERS_ref = /* Reference vertical profile */
(PID.TID 0000.0001)    35 @  0.000000000000000E+00              /* K =  1: 35 */
(PID.TID 0000.0001)     ;
(PID.TID 0000.0001) PTRACERS_EvPrRn =/* tracer conc. in Evap. & Rain */
(PID.TID 0000.0001)                 1.234567000000000E+05
(PID.TID 0000.0001)     ;
(PID.TID 0000.0001)  -----------------------------------
(PID.TID 0000.0001)  tracer number :   25
(PID.TID 0000.0001) PTRACERS_names = /* Tracer short name */
(PID.TID 0000.0001)               'BIO_2_004'
(PID.TID 0000.0001)     ;
(PID.TID 0000.0001) PTRACERS_long_names = /* Tracer long name */
(PID.TID 0000.0001)               ''
(PID.TID 0000.0001)     ;
(PID.TID 0000.0001) PTRACERS_ioLabel = /* tracer IO Label */
(PID.TID 0000.0001)               '25'
(PID.TID 0000.0001)     ;
(PID.TID 0000.0001) PTRACERS_advScheme = /* Advection Scheme */
(PID.TID 0000.0001)                      33
(PID.TID 0000.0001)     ;
(PID.TID 0000.0001) PTRACERS_SOM_Advection = /* tracer uses SOM advection scheme */
(PID.TID 0000.0001)                   F
(PID.TID 0000.0001)     ;
(PID.TID 0000.0001) PTRACERS_ImplVertAdv = /* implicit vert. advection flag */
(PID.TID 0000.0001)                   F
(PID.TID 0000.0001)     ;
(PID.TID 0000.0001) PTRACERS_diffKh = /* Laplacian Diffusivity */
(PID.TID 0000.0001)                 0.000000000000000E+00
(PID.TID 0000.0001)     ;
(PID.TID 0000.0001) PTRACERS_diffK4 = /* Biharmonic Diffusivity */
(PID.TID 0000.0001)                 0.000000000000000E+00
(PID.TID 0000.0001)     ;
(PID.TID 0000.0001) PTRACERS_diffKrNr = /* Vertical Diffusivity */
(PID.TID 0000.0001)    35 @  1.000000000000000E-05              /* K =  1: 35 */
(PID.TID 0000.0001)     ;
(PID.TID 0000.0001) PTRACERS_useGMRedi = /* apply GM-Redi */
(PID.TID 0000.0001)                   F
(PID.TID 0000.0001)     ;
(PID.TID 0000.0001) PTRACERS_useDWNSLP = /* apply DOWN-SLOPE Flow */
(PID.TID 0000.0001)                   F
(PID.TID 0000.0001)     ;
(PID.TID 0000.0001) PTRACERS_useKPP = /* apply KPP scheme */
(PID.TID 0000.0001)                   T
(PID.TID 0000.0001)     ;
(PID.TID 0000.0001) PTRACERS_ref = /* Reference vertical profile */
(PID.TID 0000.0001)    35 @  0.000000000000000E+00              /* K =  1: 35 */
(PID.TID 0000.0001)     ;
(PID.TID 0000.0001) PTRACERS_EvPrRn =/* tracer conc. in Evap. & Rain */
(PID.TID 0000.0001)                 1.234567000000000E+05
(PID.TID 0000.0001)     ;
(PID.TID 0000.0001)  -----------------------------------
(PID.TID 0000.0001)  tracer number :   26
(PID.TID 0000.0001) PTRACERS_names = /* Tracer short name */
(PID.TID 0000.0001)               'BIO_2_005'
(PID.TID 0000.0001)     ;
(PID.TID 0000.0001) PTRACERS_long_names = /* Tracer long name */
(PID.TID 0000.0001)               ''
(PID.TID 0000.0001)     ;
(PID.TID 0000.0001) PTRACERS_ioLabel = /* tracer IO Label */
(PID.TID 0000.0001)               '26'
(PID.TID 0000.0001)     ;
(PID.TID 0000.0001) PTRACERS_advScheme = /* Advection Scheme */
(PID.TID 0000.0001)                      33
(PID.TID 0000.0001)     ;
(PID.TID 0000.0001) PTRACERS_SOM_Advection = /* tracer uses SOM advection scheme */
(PID.TID 0000.0001)                   F
(PID.TID 0000.0001)     ;
(PID.TID 0000.0001) PTRACERS_ImplVertAdv = /* implicit vert. advection flag */
(PID.TID 0000.0001)                   F
(PID.TID 0000.0001)     ;
(PID.TID 0000.0001) PTRACERS_diffKh = /* Laplacian Diffusivity */
(PID.TID 0000.0001)                 0.000000000000000E+00
(PID.TID 0000.0001)     ;
(PID.TID 0000.0001) PTRACERS_diffK4 = /* Biharmonic Diffusivity */
(PID.TID 0000.0001)                 0.000000000000000E+00
(PID.TID 0000.0001)     ;
(PID.TID 0000.0001) PTRACERS_diffKrNr = /* Vertical Diffusivity */
(PID.TID 0000.0001)    35 @  1.000000000000000E-05              /* K =  1: 35 */
(PID.TID 0000.0001)     ;
(PID.TID 0000.0001) PTRACERS_useGMRedi = /* apply GM-Redi */
(PID.TID 0000.0001)                   F
(PID.TID 0000.0001)     ;
(PID.TID 0000.0001) PTRACERS_useDWNSLP = /* apply DOWN-SLOPE Flow */
(PID.TID 0000.0001)                   F
(PID.TID 0000.0001)     ;
(PID.TID 0000.0001) PTRACERS_useKPP = /* apply KPP scheme */
(PID.TID 0000.0001)                   T
(PID.TID 0000.0001)     ;
(PID.TID 0000.0001) PTRACERS_ref = /* Reference vertical profile */
(PID.TID 0000.0001)    35 @  0.000000000000000E+00              /* K =  1: 35 */
(PID.TID 0000.0001)     ;
(PID.TID 0000.0001) PTRACERS_EvPrRn =/* tracer conc. in Evap. & Rain */
(PID.TID 0000.0001)                 1.234567000000000E+05
(PID.TID 0000.0001)     ;
(PID.TID 0000.0001)  -----------------------------------
(PID.TID 0000.0001)  tracer number :   27
(PID.TID 0000.0001) PTRACERS_names = /* Tracer short name */
(PID.TID 0000.0001)               'BIO_2_006'
(PID.TID 0000.0001)     ;
(PID.TID 0000.0001) PTRACERS_long_names = /* Tracer long name */
(PID.TID 0000.0001)               ''
(PID.TID 0000.0001)     ;
(PID.TID 0000.0001) PTRACERS_ioLabel = /* tracer IO Label */
(PID.TID 0000.0001)               '27'
(PID.TID 0000.0001)     ;
(PID.TID 0000.0001) PTRACERS_advScheme = /* Advection Scheme */
(PID.TID 0000.0001)                      33
(PID.TID 0000.0001)     ;
(PID.TID 0000.0001) PTRACERS_SOM_Advection = /* tracer uses SOM advection scheme */
(PID.TID 0000.0001)                   F
(PID.TID 0000.0001)     ;
(PID.TID 0000.0001) PTRACERS_ImplVertAdv = /* implicit vert. advection flag */
(PID.TID 0000.0001)                   F
(PID.TID 0000.0001)     ;
(PID.TID 0000.0001) PTRACERS_diffKh = /* Laplacian Diffusivity */
(PID.TID 0000.0001)                 0.000000000000000E+00
(PID.TID 0000.0001)     ;
(PID.TID 0000.0001) PTRACERS_diffK4 = /* Biharmonic Diffusivity */
(PID.TID 0000.0001)                 0.000000000000000E+00
(PID.TID 0000.0001)     ;
(PID.TID 0000.0001) PTRACERS_diffKrNr = /* Vertical Diffusivity */
(PID.TID 0000.0001)    35 @  1.000000000000000E-05              /* K =  1: 35 */
(PID.TID 0000.0001)     ;
(PID.TID 0000.0001) PTRACERS_useGMRedi = /* apply GM-Redi */
(PID.TID 0000.0001)                   F
(PID.TID 0000.0001)     ;
(PID.TID 0000.0001) PTRACERS_useDWNSLP = /* apply DOWN-SLOPE Flow */
(PID.TID 0000.0001)                   F
(PID.TID 0000.0001)     ;
(PID.TID 0000.0001) PTRACERS_useKPP = /* apply KPP scheme */
(PID.TID 0000.0001)                   T
(PID.TID 0000.0001)     ;
(PID.TID 0000.0001) PTRACERS_ref = /* Reference vertical profile */
(PID.TID 0000.0001)    35 @  0.000000000000000E+00              /* K =  1: 35 */
(PID.TID 0000.0001)     ;
(PID.TID 0000.0001) PTRACERS_EvPrRn =/* tracer conc. in Evap. & Rain */
(PID.TID 0000.0001)                 1.234567000000000E+05
(PID.TID 0000.0001)     ;
(PID.TID 0000.0001)  -----------------------------------
(PID.TID 0000.0001)  tracer number :   28
(PID.TID 0000.0001) PTRACERS_names = /* Tracer short name */
(PID.TID 0000.0001)               'BIO_2_007'
(PID.TID 0000.0001)     ;
(PID.TID 0000.0001) PTRACERS_long_names = /* Tracer long name */
(PID.TID 0000.0001)               ''
(PID.TID 0000.0001)     ;
(PID.TID 0000.0001) PTRACERS_ioLabel = /* tracer IO Label */
(PID.TID 0000.0001)               '28'
(PID.TID 0000.0001)     ;
(PID.TID 0000.0001) PTRACERS_advScheme = /* Advection Scheme */
(PID.TID 0000.0001)                      33
(PID.TID 0000.0001)     ;
(PID.TID 0000.0001) PTRACERS_SOM_Advection = /* tracer uses SOM advection scheme */
(PID.TID 0000.0001)                   F
(PID.TID 0000.0001)     ;
(PID.TID 0000.0001) PTRACERS_ImplVertAdv = /* implicit vert. advection flag */
(PID.TID 0000.0001)                   F
(PID.TID 0000.0001)     ;
(PID.TID 0000.0001) PTRACERS_diffKh = /* Laplacian Diffusivity */
(PID.TID 0000.0001)                 0.000000000000000E+00
(PID.TID 0000.0001)     ;
(PID.TID 0000.0001) PTRACERS_diffK4 = /* Biharmonic Diffusivity */
(PID.TID 0000.0001)                 0.000000000000000E+00
(PID.TID 0000.0001)     ;
(PID.TID 0000.0001) PTRACERS_diffKrNr = /* Vertical Diffusivity */
(PID.TID 0000.0001)    35 @  1.000000000000000E-05              /* K =  1: 35 */
(PID.TID 0000.0001)     ;
(PID.TID 0000.0001) PTRACERS_useGMRedi = /* apply GM-Redi */
(PID.TID 0000.0001)                   F
(PID.TID 0000.0001)     ;
(PID.TID 0000.0001) PTRACERS_useDWNSLP = /* apply DOWN-SLOPE Flow */
(PID.TID 0000.0001)                   F
(PID.TID 0000.0001)     ;
(PID.TID 0000.0001) PTRACERS_useKPP = /* apply KPP scheme */
(PID.TID 0000.0001)                   T
(PID.TID 0000.0001)     ;
(PID.TID 0000.0001) PTRACERS_ref = /* Reference vertical profile */
(PID.TID 0000.0001)    35 @  0.000000000000000E+00              /* K =  1: 35 */
(PID.TID 0000.0001)     ;
(PID.TID 0000.0001) PTRACERS_EvPrRn =/* tracer conc. in Evap. & Rain */
(PID.TID 0000.0001)                 1.234567000000000E+05
(PID.TID 0000.0001)     ;
(PID.TID 0000.0001)  -----------------------------------
(PID.TID 0000.0001)  tracer number :   29
(PID.TID 0000.0001) PTRACERS_names = /* Tracer short name */
(PID.TID 0000.0001)               'BIO_2_008'
(PID.TID 0000.0001)     ;
(PID.TID 0000.0001) PTRACERS_long_names = /* Tracer long name */
(PID.TID 0000.0001)               ''
(PID.TID 0000.0001)     ;
(PID.TID 0000.0001) PTRACERS_ioLabel = /* tracer IO Label */
(PID.TID 0000.0001)               '29'
(PID.TID 0000.0001)     ;
(PID.TID 0000.0001) PTRACERS_advScheme = /* Advection Scheme */
(PID.TID 0000.0001)                      33
(PID.TID 0000.0001)     ;
(PID.TID 0000.0001) PTRACERS_SOM_Advection = /* tracer uses SOM advection scheme */
(PID.TID 0000.0001)                   F
(PID.TID 0000.0001)     ;
(PID.TID 0000.0001) PTRACERS_ImplVertAdv = /* implicit vert. advection flag */
(PID.TID 0000.0001)                   F
(PID.TID 0000.0001)     ;
(PID.TID 0000.0001) PTRACERS_diffKh = /* Laplacian Diffusivity */
(PID.TID 0000.0001)                 0.000000000000000E+00
(PID.TID 0000.0001)     ;
(PID.TID 0000.0001) PTRACERS_diffK4 = /* Biharmonic Diffusivity */
(PID.TID 0000.0001)                 0.000000000000000E+00
(PID.TID 0000.0001)     ;
(PID.TID 0000.0001) PTRACERS_diffKrNr = /* Vertical Diffusivity */
(PID.TID 0000.0001)    35 @  1.000000000000000E-05              /* K =  1: 35 */
(PID.TID 0000.0001)     ;
(PID.TID 0000.0001) PTRACERS_useGMRedi = /* apply GM-Redi */
(PID.TID 0000.0001)                   F
(PID.TID 0000.0001)     ;
(PID.TID 0000.0001) PTRACERS_useDWNSLP = /* apply DOWN-SLOPE Flow */
(PID.TID 0000.0001)                   F
(PID.TID 0000.0001)     ;
(PID.TID 0000.0001) PTRACERS_useKPP = /* apply KPP scheme */
(PID.TID 0000.0001)                   T
(PID.TID 0000.0001)     ;
(PID.TID 0000.0001) PTRACERS_ref = /* Reference vertical profile */
(PID.TID 0000.0001)    35 @  0.000000000000000E+00              /* K =  1: 35 */
(PID.TID 0000.0001)     ;
(PID.TID 0000.0001) PTRACERS_EvPrRn =/* tracer conc. in Evap. & Rain */
(PID.TID 0000.0001)                 1.234567000000000E+05
(PID.TID 0000.0001)     ;
(PID.TID 0000.0001)  -----------------------------------
(PID.TID 0000.0001)  tracer number :   30
(PID.TID 0000.0001) PTRACERS_names = /* Tracer short name */
(PID.TID 0000.0001)               'BIO_2_009'
(PID.TID 0000.0001)     ;
(PID.TID 0000.0001) PTRACERS_long_names = /* Tracer long name */
(PID.TID 0000.0001)               ''
(PID.TID 0000.0001)     ;
(PID.TID 0000.0001) PTRACERS_ioLabel = /* tracer IO Label */
(PID.TID 0000.0001)               '30'
(PID.TID 0000.0001)     ;
(PID.TID 0000.0001) PTRACERS_advScheme = /* Advection Scheme */
(PID.TID 0000.0001)                      33
(PID.TID 0000.0001)     ;
(PID.TID 0000.0001) PTRACERS_SOM_Advection = /* tracer uses SOM advection scheme */
(PID.TID 0000.0001)                   F
(PID.TID 0000.0001)     ;
(PID.TID 0000.0001) PTRACERS_ImplVertAdv = /* implicit vert. advection flag */
(PID.TID 0000.0001)                   F
(PID.TID 0000.0001)     ;
(PID.TID 0000.0001) PTRACERS_diffKh = /* Laplacian Diffusivity */
(PID.TID 0000.0001)                 0.000000000000000E+00
(PID.TID 0000.0001)     ;
(PID.TID 0000.0001) PTRACERS_diffK4 = /* Biharmonic Diffusivity */
(PID.TID 0000.0001)                 0.000000000000000E+00
(PID.TID 0000.0001)     ;
(PID.TID 0000.0001) PTRACERS_diffKrNr = /* Vertical Diffusivity */
(PID.TID 0000.0001)    35 @  1.000000000000000E-05              /* K =  1: 35 */
(PID.TID 0000.0001)     ;
(PID.TID 0000.0001) PTRACERS_useGMRedi = /* apply GM-Redi */
(PID.TID 0000.0001)                   F
(PID.TID 0000.0001)     ;
(PID.TID 0000.0001) PTRACERS_useDWNSLP = /* apply DOWN-SLOPE Flow */
(PID.TID 0000.0001)                   F
(PID.TID 0000.0001)     ;
(PID.TID 0000.0001) PTRACERS_useKPP = /* apply KPP scheme */
(PID.TID 0000.0001)                   T
(PID.TID 0000.0001)     ;
(PID.TID 0000.0001) PTRACERS_ref = /* Reference vertical profile */
(PID.TID 0000.0001)    35 @  0.000000000000000E+00              /* K =  1: 35 */
(PID.TID 0000.0001)     ;
(PID.TID 0000.0001) PTRACERS_EvPrRn =/* tracer conc. in Evap. & Rain */
(PID.TID 0000.0001)                 1.234567000000000E+05
(PID.TID 0000.0001)     ;
(PID.TID 0000.0001)  -----------------------------------
(PID.TID 0000.0001)  tracer number :   31
(PID.TID 0000.0001) PTRACERS_names = /* Tracer short name */
(PID.TID 0000.0001)               'BIO_2_010'
(PID.TID 0000.0001)     ;
(PID.TID 0000.0001) PTRACERS_long_names = /* Tracer long name */
(PID.TID 0000.0001)               ''
(PID.TID 0000.0001)     ;
(PID.TID 0000.0001) PTRACERS_ioLabel = /* tracer IO Label */
(PID.TID 0000.0001)               '31'
(PID.TID 0000.0001)     ;
(PID.TID 0000.0001) PTRACERS_advScheme = /* Advection Scheme */
(PID.TID 0000.0001)                      33
(PID.TID 0000.0001)     ;
(PID.TID 0000.0001) PTRACERS_SOM_Advection = /* tracer uses SOM advection scheme */
(PID.TID 0000.0001)                   F
(PID.TID 0000.0001)     ;
(PID.TID 0000.0001) PTRACERS_ImplVertAdv = /* implicit vert. advection flag */
(PID.TID 0000.0001)                   F
(PID.TID 0000.0001)     ;
(PID.TID 0000.0001) PTRACERS_diffKh = /* Laplacian Diffusivity */
(PID.TID 0000.0001)                 0.000000000000000E+00
(PID.TID 0000.0001)     ;
(PID.TID 0000.0001) PTRACERS_diffK4 = /* Biharmonic Diffusivity */
(PID.TID 0000.0001)                 0.000000000000000E+00
(PID.TID 0000.0001)     ;
(PID.TID 0000.0001) PTRACERS_diffKrNr = /* Vertical Diffusivity */
(PID.TID 0000.0001)    35 @  1.000000000000000E-05              /* K =  1: 35 */
(PID.TID 0000.0001)     ;
(PID.TID 0000.0001) PTRACERS_useGMRedi = /* apply GM-Redi */
(PID.TID 0000.0001)                   F
(PID.TID 0000.0001)     ;
(PID.TID 0000.0001) PTRACERS_useDWNSLP = /* apply DOWN-SLOPE Flow */
(PID.TID 0000.0001)                   F
(PID.TID 0000.0001)     ;
(PID.TID 0000.0001) PTRACERS_useKPP = /* apply KPP scheme */
(PID.TID 0000.0001)                   T
(PID.TID 0000.0001)     ;
(PID.TID 0000.0001) PTRACERS_ref = /* Reference vertical profile */
(PID.TID 0000.0001)    35 @  0.000000000000000E+00              /* K =  1: 35 */
(PID.TID 0000.0001)     ;
(PID.TID 0000.0001) PTRACERS_EvPrRn =/* tracer conc. in Evap. & Rain */
(PID.TID 0000.0001)                 1.234567000000000E+05
(PID.TID 0000.0001)     ;
(PID.TID 0000.0001)  -----------------------------------
(PID.TID 0000.0001)  tracer number :   32
(PID.TID 0000.0001) PTRACERS_names = /* Tracer short name */
(PID.TID 0000.0001)               'BIO_2_011'
(PID.TID 0000.0001)     ;
(PID.TID 0000.0001) PTRACERS_long_names = /* Tracer long name */
(PID.TID 0000.0001)               ''
(PID.TID 0000.0001)     ;
(PID.TID 0000.0001) PTRACERS_ioLabel = /* tracer IO Label */
(PID.TID 0000.0001)               '32'
(PID.TID 0000.0001)     ;
(PID.TID 0000.0001) PTRACERS_advScheme = /* Advection Scheme */
(PID.TID 0000.0001)                      33
(PID.TID 0000.0001)     ;
(PID.TID 0000.0001) PTRACERS_SOM_Advection = /* tracer uses SOM advection scheme */
(PID.TID 0000.0001)                   F
(PID.TID 0000.0001)     ;
(PID.TID 0000.0001) PTRACERS_ImplVertAdv = /* implicit vert. advection flag */
(PID.TID 0000.0001)                   F
(PID.TID 0000.0001)     ;
(PID.TID 0000.0001) PTRACERS_diffKh = /* Laplacian Diffusivity */
(PID.TID 0000.0001)                 0.000000000000000E+00
(PID.TID 0000.0001)     ;
(PID.TID 0000.0001) PTRACERS_diffK4 = /* Biharmonic Diffusivity */
(PID.TID 0000.0001)                 0.000000000000000E+00
(PID.TID 0000.0001)     ;
(PID.TID 0000.0001) PTRACERS_diffKrNr = /* Vertical Diffusivity */
(PID.TID 0000.0001)    35 @  1.000000000000000E-05              /* K =  1: 35 */
(PID.TID 0000.0001)     ;
(PID.TID 0000.0001) PTRACERS_useGMRedi = /* apply GM-Redi */
(PID.TID 0000.0001)                   F
(PID.TID 0000.0001)     ;
(PID.TID 0000.0001) PTRACERS_useDWNSLP = /* apply DOWN-SLOPE Flow */
(PID.TID 0000.0001)                   F
(PID.TID 0000.0001)     ;
(PID.TID 0000.0001) PTRACERS_useKPP = /* apply KPP scheme */
(PID.TID 0000.0001)                   T
(PID.TID 0000.0001)     ;
(PID.TID 0000.0001) PTRACERS_ref = /* Reference vertical profile */
(PID.TID 0000.0001)    35 @  0.000000000000000E+00              /* K =  1: 35 */
(PID.TID 0000.0001)     ;
(PID.TID 0000.0001) PTRACERS_EvPrRn =/* tracer conc. in Evap. & Rain */
(PID.TID 0000.0001)                 1.234567000000000E+05
(PID.TID 0000.0001)     ;
(PID.TID 0000.0001)  -----------------------------------
(PID.TID 0000.0001)  tracer number :   33
(PID.TID 0000.0001) PTRACERS_names = /* Tracer short name */
(PID.TID 0000.0001)               'BIO_2_012'
(PID.TID 0000.0001)     ;
(PID.TID 0000.0001) PTRACERS_long_names = /* Tracer long name */
(PID.TID 0000.0001)               ''
(PID.TID 0000.0001)     ;
(PID.TID 0000.0001) PTRACERS_ioLabel = /* tracer IO Label */
(PID.TID 0000.0001)               '33'
(PID.TID 0000.0001)     ;
(PID.TID 0000.0001) PTRACERS_advScheme = /* Advection Scheme */
(PID.TID 0000.0001)                      33
(PID.TID 0000.0001)     ;
(PID.TID 0000.0001) PTRACERS_SOM_Advection = /* tracer uses SOM advection scheme */
(PID.TID 0000.0001)                   F
(PID.TID 0000.0001)     ;
(PID.TID 0000.0001) PTRACERS_ImplVertAdv = /* implicit vert. advection flag */
(PID.TID 0000.0001)                   F
(PID.TID 0000.0001)     ;
(PID.TID 0000.0001) PTRACERS_diffKh = /* Laplacian Diffusivity */
(PID.TID 0000.0001)                 0.000000000000000E+00
(PID.TID 0000.0001)     ;
(PID.TID 0000.0001) PTRACERS_diffK4 = /* Biharmonic Diffusivity */
(PID.TID 0000.0001)                 0.000000000000000E+00
(PID.TID 0000.0001)     ;
(PID.TID 0000.0001) PTRACERS_diffKrNr = /* Vertical Diffusivity */
(PID.TID 0000.0001)    35 @  1.000000000000000E-05              /* K =  1: 35 */
(PID.TID 0000.0001)     ;
(PID.TID 0000.0001) PTRACERS_useGMRedi = /* apply GM-Redi */
(PID.TID 0000.0001)                   F
(PID.TID 0000.0001)     ;
(PID.TID 0000.0001) PTRACERS_useDWNSLP = /* apply DOWN-SLOPE Flow */
(PID.TID 0000.0001)                   F
(PID.TID 0000.0001)     ;
(PID.TID 0000.0001) PTRACERS_useKPP = /* apply KPP scheme */
(PID.TID 0000.0001)                   T
(PID.TID 0000.0001)     ;
(PID.TID 0000.0001) PTRACERS_ref = /* Reference vertical profile */
(PID.TID 0000.0001)    35 @  0.000000000000000E+00              /* K =  1: 35 */
(PID.TID 0000.0001)     ;
(PID.TID 0000.0001) PTRACERS_EvPrRn =/* tracer conc. in Evap. & Rain */
(PID.TID 0000.0001)                 1.234567000000000E+05
(PID.TID 0000.0001)     ;
(PID.TID 0000.0001)  -----------------------------------
(PID.TID 0000.0001)  tracer number :   34
(PID.TID 0000.0001) PTRACERS_names = /* Tracer short name */
(PID.TID 0000.0001)               'BIO_2_013'
(PID.TID 0000.0001)     ;
(PID.TID 0000.0001) PTRACERS_long_names = /* Tracer long name */
(PID.TID 0000.0001)               ''
(PID.TID 0000.0001)     ;
(PID.TID 0000.0001) PTRACERS_ioLabel = /* tracer IO Label */
(PID.TID 0000.0001)               '34'
(PID.TID 0000.0001)     ;
(PID.TID 0000.0001) PTRACERS_advScheme = /* Advection Scheme */
(PID.TID 0000.0001)                      33
(PID.TID 0000.0001)     ;
(PID.TID 0000.0001) PTRACERS_SOM_Advection = /* tracer uses SOM advection scheme */
(PID.TID 0000.0001)                   F
(PID.TID 0000.0001)     ;
(PID.TID 0000.0001) PTRACERS_ImplVertAdv = /* implicit vert. advection flag */
(PID.TID 0000.0001)                   F
(PID.TID 0000.0001)     ;
(PID.TID 0000.0001) PTRACERS_diffKh = /* Laplacian Diffusivity */
(PID.TID 0000.0001)                 0.000000000000000E+00
(PID.TID 0000.0001)     ;
(PID.TID 0000.0001) PTRACERS_diffK4 = /* Biharmonic Diffusivity */
(PID.TID 0000.0001)                 0.000000000000000E+00
(PID.TID 0000.0001)     ;
(PID.TID 0000.0001) PTRACERS_diffKrNr = /* Vertical Diffusivity */
(PID.TID 0000.0001)    35 @  1.000000000000000E-05              /* K =  1: 35 */
(PID.TID 0000.0001)     ;
(PID.TID 0000.0001) PTRACERS_useGMRedi = /* apply GM-Redi */
(PID.TID 0000.0001)                   F
(PID.TID 0000.0001)     ;
(PID.TID 0000.0001) PTRACERS_useDWNSLP = /* apply DOWN-SLOPE Flow */
(PID.TID 0000.0001)                   F
(PID.TID 0000.0001)     ;
(PID.TID 0000.0001) PTRACERS_useKPP = /* apply KPP scheme */
(PID.TID 0000.0001)                   T
(PID.TID 0000.0001)     ;
(PID.TID 0000.0001) PTRACERS_ref = /* Reference vertical profile */
(PID.TID 0000.0001)    35 @  0.000000000000000E+00              /* K =  1: 35 */
(PID.TID 0000.0001)     ;
(PID.TID 0000.0001) PTRACERS_EvPrRn =/* tracer conc. in Evap. & Rain */
(PID.TID 0000.0001)                 1.234567000000000E+05
(PID.TID 0000.0001)     ;
(PID.TID 0000.0001)  -----------------------------------
(PID.TID 0000.0001)  tracer number :   35
(PID.TID 0000.0001) PTRACERS_names = /* Tracer short name */
(PID.TID 0000.0001)               'BIO_2_014'
(PID.TID 0000.0001)     ;
(PID.TID 0000.0001) PTRACERS_long_names = /* Tracer long name */
(PID.TID 0000.0001)               ''
(PID.TID 0000.0001)     ;
(PID.TID 0000.0001) PTRACERS_ioLabel = /* tracer IO Label */
(PID.TID 0000.0001)               '35'
(PID.TID 0000.0001)     ;
(PID.TID 0000.0001) PTRACERS_advScheme = /* Advection Scheme */
(PID.TID 0000.0001)                      33
(PID.TID 0000.0001)     ;
(PID.TID 0000.0001) PTRACERS_SOM_Advection = /* tracer uses SOM advection scheme */
(PID.TID 0000.0001)                   F
(PID.TID 0000.0001)     ;
(PID.TID 0000.0001) PTRACERS_ImplVertAdv = /* implicit vert. advection flag */
(PID.TID 0000.0001)                   F
(PID.TID 0000.0001)     ;
(PID.TID 0000.0001) PTRACERS_diffKh = /* Laplacian Diffusivity */
(PID.TID 0000.0001)                 0.000000000000000E+00
(PID.TID 0000.0001)     ;
(PID.TID 0000.0001) PTRACERS_diffK4 = /* Biharmonic Diffusivity */
(PID.TID 0000.0001)                 0.000000000000000E+00
(PID.TID 0000.0001)     ;
(PID.TID 0000.0001) PTRACERS_diffKrNr = /* Vertical Diffusivity */
(PID.TID 0000.0001)    35 @  1.000000000000000E-05              /* K =  1: 35 */
(PID.TID 0000.0001)     ;
(PID.TID 0000.0001) PTRACERS_useGMRedi = /* apply GM-Redi */
(PID.TID 0000.0001)                   F
(PID.TID 0000.0001)     ;
(PID.TID 0000.0001) PTRACERS_useDWNSLP = /* apply DOWN-SLOPE Flow */
(PID.TID 0000.0001)                   F
(PID.TID 0000.0001)     ;
(PID.TID 0000.0001) PTRACERS_useKPP = /* apply KPP scheme */
(PID.TID 0000.0001)                   T
(PID.TID 0000.0001)     ;
(PID.TID 0000.0001) PTRACERS_ref = /* Reference vertical profile */
(PID.TID 0000.0001)    35 @  0.000000000000000E+00              /* K =  1: 35 */
(PID.TID 0000.0001)     ;
(PID.TID 0000.0001) PTRACERS_EvPrRn =/* tracer conc. in Evap. & Rain */
(PID.TID 0000.0001)                 1.234567000000000E+05
(PID.TID 0000.0001)     ;
(PID.TID 0000.0001)  -----------------------------------
(PID.TID 0000.0001)  tracer number :   36
(PID.TID 0000.0001) PTRACERS_names = /* Tracer short name */
(PID.TID 0000.0001)               'BIO_2_015'
(PID.TID 0000.0001)     ;
(PID.TID 0000.0001) PTRACERS_long_names = /* Tracer long name */
(PID.TID 0000.0001)               ''
(PID.TID 0000.0001)     ;
(PID.TID 0000.0001) PTRACERS_ioLabel = /* tracer IO Label */
(PID.TID 0000.0001)               '36'
(PID.TID 0000.0001)     ;
(PID.TID 0000.0001) PTRACERS_advScheme = /* Advection Scheme */
(PID.TID 0000.0001)                      33
(PID.TID 0000.0001)     ;
(PID.TID 0000.0001) PTRACERS_SOM_Advection = /* tracer uses SOM advection scheme */
(PID.TID 0000.0001)                   F
(PID.TID 0000.0001)     ;
(PID.TID 0000.0001) PTRACERS_ImplVertAdv = /* implicit vert. advection flag */
(PID.TID 0000.0001)                   F
(PID.TID 0000.0001)     ;
(PID.TID 0000.0001) PTRACERS_diffKh = /* Laplacian Diffusivity */
(PID.TID 0000.0001)                 0.000000000000000E+00
(PID.TID 0000.0001)     ;
(PID.TID 0000.0001) PTRACERS_diffK4 = /* Biharmonic Diffusivity */
(PID.TID 0000.0001)                 0.000000000000000E+00
(PID.TID 0000.0001)     ;
(PID.TID 0000.0001) PTRACERS_diffKrNr = /* Vertical Diffusivity */
(PID.TID 0000.0001)    35 @  1.000000000000000E-05              /* K =  1: 35 */
(PID.TID 0000.0001)     ;
(PID.TID 0000.0001) PTRACERS_useGMRedi = /* apply GM-Redi */
(PID.TID 0000.0001)                   F
(PID.TID 0000.0001)     ;
(PID.TID 0000.0001) PTRACERS_useDWNSLP = /* apply DOWN-SLOPE Flow */
(PID.TID 0000.0001)                   F
(PID.TID 0000.0001)     ;
(PID.TID 0000.0001) PTRACERS_useKPP = /* apply KPP scheme */
(PID.TID 0000.0001)                   T
(PID.TID 0000.0001)     ;
(PID.TID 0000.0001) PTRACERS_ref = /* Reference vertical profile */
(PID.TID 0000.0001)    35 @  0.000000000000000E+00              /* K =  1: 35 */
(PID.TID 0000.0001)     ;
(PID.TID 0000.0001) PTRACERS_EvPrRn =/* tracer conc. in Evap. & Rain */
(PID.TID 0000.0001)                 1.234567000000000E+05
(PID.TID 0000.0001)     ;
(PID.TID 0000.0001)  -----------------------------------
(PID.TID 0000.0001)  tracer number :   37
(PID.TID 0000.0001) PTRACERS_names = /* Tracer short name */
(PID.TID 0000.0001)               'BIO_2_016'
(PID.TID 0000.0001)     ;
(PID.TID 0000.0001) PTRACERS_long_names = /* Tracer long name */
(PID.TID 0000.0001)               ''
(PID.TID 0000.0001)     ;
(PID.TID 0000.0001) PTRACERS_ioLabel = /* tracer IO Label */
(PID.TID 0000.0001)               '37'
(PID.TID 0000.0001)     ;
(PID.TID 0000.0001) PTRACERS_advScheme = /* Advection Scheme */
(PID.TID 0000.0001)                      33
(PID.TID 0000.0001)     ;
(PID.TID 0000.0001) PTRACERS_SOM_Advection = /* tracer uses SOM advection scheme */
(PID.TID 0000.0001)                   F
(PID.TID 0000.0001)     ;
(PID.TID 0000.0001) PTRACERS_ImplVertAdv = /* implicit vert. advection flag */
(PID.TID 0000.0001)                   F
(PID.TID 0000.0001)     ;
(PID.TID 0000.0001) PTRACERS_diffKh = /* Laplacian Diffusivity */
(PID.TID 0000.0001)                 0.000000000000000E+00
(PID.TID 0000.0001)     ;
(PID.TID 0000.0001) PTRACERS_diffK4 = /* Biharmonic Diffusivity */
(PID.TID 0000.0001)                 0.000000000000000E+00
(PID.TID 0000.0001)     ;
(PID.TID 0000.0001) PTRACERS_diffKrNr = /* Vertical Diffusivity */
(PID.TID 0000.0001)    35 @  1.000000000000000E-05              /* K =  1: 35 */
(PID.TID 0000.0001)     ;
(PID.TID 0000.0001) PTRACERS_useGMRedi = /* apply GM-Redi */
(PID.TID 0000.0001)                   F
(PID.TID 0000.0001)     ;
(PID.TID 0000.0001) PTRACERS_useDWNSLP = /* apply DOWN-SLOPE Flow */
(PID.TID 0000.0001)                   F
(PID.TID 0000.0001)     ;
(PID.TID 0000.0001) PTRACERS_useKPP = /* apply KPP scheme */
(PID.TID 0000.0001)                   T
(PID.TID 0000.0001)     ;
(PID.TID 0000.0001) PTRACERS_ref = /* Reference vertical profile */
(PID.TID 0000.0001)    35 @  0.000000000000000E+00              /* K =  1: 35 */
(PID.TID 0000.0001)     ;
(PID.TID 0000.0001) PTRACERS_EvPrRn =/* tracer conc. in Evap. & Rain */
(PID.TID 0000.0001)                 1.234567000000000E+05
(PID.TID 0000.0001)     ;
(PID.TID 0000.0001)  -----------------------------------
(PID.TID 0000.0001)  tracer number :   38
(PID.TID 0000.0001) PTRACERS_names = /* Tracer short name */
(PID.TID 0000.0001)               'BIO_3_001'
(PID.TID 0000.0001)     ;
(PID.TID 0000.0001) PTRACERS_long_names = /* Tracer long name */
(PID.TID 0000.0001)               ''
(PID.TID 0000.0001)     ;
(PID.TID 0000.0001) PTRACERS_ioLabel = /* tracer IO Label */
(PID.TID 0000.0001)               '38'
(PID.TID 0000.0001)     ;
(PID.TID 0000.0001) PTRACERS_advScheme = /* Advection Scheme */
(PID.TID 0000.0001)                      33
(PID.TID 0000.0001)     ;
(PID.TID 0000.0001) PTRACERS_SOM_Advection = /* tracer uses SOM advection scheme */
(PID.TID 0000.0001)                   F
(PID.TID 0000.0001)     ;
(PID.TID 0000.0001) PTRACERS_ImplVertAdv = /* implicit vert. advection flag */
(PID.TID 0000.0001)                   F
(PID.TID 0000.0001)     ;
(PID.TID 0000.0001) PTRACERS_diffKh = /* Laplacian Diffusivity */
(PID.TID 0000.0001)                 0.000000000000000E+00
(PID.TID 0000.0001)     ;
(PID.TID 0000.0001) PTRACERS_diffK4 = /* Biharmonic Diffusivity */
(PID.TID 0000.0001)                 0.000000000000000E+00
(PID.TID 0000.0001)     ;
(PID.TID 0000.0001) PTRACERS_diffKrNr = /* Vertical Diffusivity */
(PID.TID 0000.0001)    35 @  1.000000000000000E-05              /* K =  1: 35 */
(PID.TID 0000.0001)     ;
(PID.TID 0000.0001) PTRACERS_useGMRedi = /* apply GM-Redi */
(PID.TID 0000.0001)                   F
(PID.TID 0000.0001)     ;
(PID.TID 0000.0001) PTRACERS_useDWNSLP = /* apply DOWN-SLOPE Flow */
(PID.TID 0000.0001)                   F
(PID.TID 0000.0001)     ;
(PID.TID 0000.0001) PTRACERS_useKPP = /* apply KPP scheme */
(PID.TID 0000.0001)                   T
(PID.TID 0000.0001)     ;
(PID.TID 0000.0001) PTRACERS_ref = /* Reference vertical profile */
(PID.TID 0000.0001)    35 @  0.000000000000000E+00              /* K =  1: 35 */
(PID.TID 0000.0001)     ;
(PID.TID 0000.0001) PTRACERS_EvPrRn =/* tracer conc. in Evap. & Rain */
(PID.TID 0000.0001)                 1.234567000000000E+05
(PID.TID 0000.0001)     ;
(PID.TID 0000.0001)  -----------------------------------
(PID.TID 0000.0001)  tracer number :   39
(PID.TID 0000.0001) PTRACERS_names = /* Tracer short name */
(PID.TID 0000.0001)               'BIO_3_002'
(PID.TID 0000.0001)     ;
(PID.TID 0000.0001) PTRACERS_long_names = /* Tracer long name */
(PID.TID 0000.0001)               ''
(PID.TID 0000.0001)     ;
(PID.TID 0000.0001) PTRACERS_ioLabel = /* tracer IO Label */
(PID.TID 0000.0001)               '39'
(PID.TID 0000.0001)     ;
(PID.TID 0000.0001) PTRACERS_advScheme = /* Advection Scheme */
(PID.TID 0000.0001)                      33
(PID.TID 0000.0001)     ;
(PID.TID 0000.0001) PTRACERS_SOM_Advection = /* tracer uses SOM advection scheme */
(PID.TID 0000.0001)                   F
(PID.TID 0000.0001)     ;
(PID.TID 0000.0001) PTRACERS_ImplVertAdv = /* implicit vert. advection flag */
(PID.TID 0000.0001)                   F
(PID.TID 0000.0001)     ;
(PID.TID 0000.0001) PTRACERS_diffKh = /* Laplacian Diffusivity */
(PID.TID 0000.0001)                 0.000000000000000E+00
(PID.TID 0000.0001)     ;
(PID.TID 0000.0001) PTRACERS_diffK4 = /* Biharmonic Diffusivity */
(PID.TID 0000.0001)                 0.000000000000000E+00
(PID.TID 0000.0001)     ;
(PID.TID 0000.0001) PTRACERS_diffKrNr = /* Vertical Diffusivity */
(PID.TID 0000.0001)    35 @  1.000000000000000E-05              /* K =  1: 35 */
(PID.TID 0000.0001)     ;
(PID.TID 0000.0001) PTRACERS_useGMRedi = /* apply GM-Redi */
(PID.TID 0000.0001)                   F
(PID.TID 0000.0001)     ;
(PID.TID 0000.0001) PTRACERS_useDWNSLP = /* apply DOWN-SLOPE Flow */
(PID.TID 0000.0001)                   F
(PID.TID 0000.0001)     ;
(PID.TID 0000.0001) PTRACERS_useKPP = /* apply KPP scheme */
(PID.TID 0000.0001)                   T
(PID.TID 0000.0001)     ;
(PID.TID 0000.0001) PTRACERS_ref = /* Reference vertical profile */
(PID.TID 0000.0001)    35 @  0.000000000000000E+00              /* K =  1: 35 */
(PID.TID 0000.0001)     ;
(PID.TID 0000.0001) PTRACERS_EvPrRn =/* tracer conc. in Evap. & Rain */
(PID.TID 0000.0001)                 1.234567000000000E+05
(PID.TID 0000.0001)     ;
(PID.TID 0000.0001)  -----------------------------------
(PID.TID 0000.0001)  tracer number :   40
(PID.TID 0000.0001) PTRACERS_names = /* Tracer short name */
(PID.TID 0000.0001)               'BIO_3_003'
(PID.TID 0000.0001)     ;
(PID.TID 0000.0001) PTRACERS_long_names = /* Tracer long name */
(PID.TID 0000.0001)               ''
(PID.TID 0000.0001)     ;
(PID.TID 0000.0001) PTRACERS_ioLabel = /* tracer IO Label */
(PID.TID 0000.0001)               '40'
(PID.TID 0000.0001)     ;
(PID.TID 0000.0001) PTRACERS_advScheme = /* Advection Scheme */
(PID.TID 0000.0001)                      33
(PID.TID 0000.0001)     ;
(PID.TID 0000.0001) PTRACERS_SOM_Advection = /* tracer uses SOM advection scheme */
(PID.TID 0000.0001)                   F
(PID.TID 0000.0001)     ;
(PID.TID 0000.0001) PTRACERS_ImplVertAdv = /* implicit vert. advection flag */
(PID.TID 0000.0001)                   F
(PID.TID 0000.0001)     ;
(PID.TID 0000.0001) PTRACERS_diffKh = /* Laplacian Diffusivity */
(PID.TID 0000.0001)                 0.000000000000000E+00
(PID.TID 0000.0001)     ;
(PID.TID 0000.0001) PTRACERS_diffK4 = /* Biharmonic Diffusivity */
(PID.TID 0000.0001)                 0.000000000000000E+00
(PID.TID 0000.0001)     ;
(PID.TID 0000.0001) PTRACERS_diffKrNr = /* Vertical Diffusivity */
(PID.TID 0000.0001)    35 @  1.000000000000000E-05              /* K =  1: 35 */
(PID.TID 0000.0001)     ;
(PID.TID 0000.0001) PTRACERS_useGMRedi = /* apply GM-Redi */
(PID.TID 0000.0001)                   F
(PID.TID 0000.0001)     ;
(PID.TID 0000.0001) PTRACERS_useDWNSLP = /* apply DOWN-SLOPE Flow */
(PID.TID 0000.0001)                   F
(PID.TID 0000.0001)     ;
(PID.TID 0000.0001) PTRACERS_useKPP = /* apply KPP scheme */
(PID.TID 0000.0001)                   T
(PID.TID 0000.0001)     ;
(PID.TID 0000.0001) PTRACERS_ref = /* Reference vertical profile */
(PID.TID 0000.0001)    35 @  0.000000000000000E+00              /* K =  1: 35 */
(PID.TID 0000.0001)     ;
(PID.TID 0000.0001) PTRACERS_EvPrRn =/* tracer conc. in Evap. & Rain */
(PID.TID 0000.0001)                 1.234567000000000E+05
(PID.TID 0000.0001)     ;
(PID.TID 0000.0001)  -----------------------------------
(PID.TID 0000.0001)  tracer number :   41
(PID.TID 0000.0001) PTRACERS_names = /* Tracer short name */
(PID.TID 0000.0001)               'BIO_3_004'
(PID.TID 0000.0001)     ;
(PID.TID 0000.0001) PTRACERS_long_names = /* Tracer long name */
(PID.TID 0000.0001)               ''
(PID.TID 0000.0001)     ;
(PID.TID 0000.0001) PTRACERS_ioLabel = /* tracer IO Label */
(PID.TID 0000.0001)               '41'
(PID.TID 0000.0001)     ;
(PID.TID 0000.0001) PTRACERS_advScheme = /* Advection Scheme */
(PID.TID 0000.0001)                      33
(PID.TID 0000.0001)     ;
(PID.TID 0000.0001) PTRACERS_SOM_Advection = /* tracer uses SOM advection scheme */
(PID.TID 0000.0001)                   F
(PID.TID 0000.0001)     ;
(PID.TID 0000.0001) PTRACERS_ImplVertAdv = /* implicit vert. advection flag */
(PID.TID 0000.0001)                   F
(PID.TID 0000.0001)     ;
(PID.TID 0000.0001) PTRACERS_diffKh = /* Laplacian Diffusivity */
(PID.TID 0000.0001)                 0.000000000000000E+00
(PID.TID 0000.0001)     ;
(PID.TID 0000.0001) PTRACERS_diffK4 = /* Biharmonic Diffusivity */
(PID.TID 0000.0001)                 0.000000000000000E+00
(PID.TID 0000.0001)     ;
(PID.TID 0000.0001) PTRACERS_diffKrNr = /* Vertical Diffusivity */
(PID.TID 0000.0001)    35 @  1.000000000000000E-05              /* K =  1: 35 */
(PID.TID 0000.0001)     ;
(PID.TID 0000.0001) PTRACERS_useGMRedi = /* apply GM-Redi */
(PID.TID 0000.0001)                   F
(PID.TID 0000.0001)     ;
(PID.TID 0000.0001) PTRACERS_useDWNSLP = /* apply DOWN-SLOPE Flow */
(PID.TID 0000.0001)                   F
(PID.TID 0000.0001)     ;
(PID.TID 0000.0001) PTRACERS_useKPP = /* apply KPP scheme */
(PID.TID 0000.0001)                   T
(PID.TID 0000.0001)     ;
(PID.TID 0000.0001) PTRACERS_ref = /* Reference vertical profile */
(PID.TID 0000.0001)    35 @  0.000000000000000E+00              /* K =  1: 35 */
(PID.TID 0000.0001)     ;
(PID.TID 0000.0001) PTRACERS_EvPrRn =/* tracer conc. in Evap. & Rain */
(PID.TID 0000.0001)                 1.234567000000000E+05
(PID.TID 0000.0001)     ;
(PID.TID 0000.0001)  -----------------------------------
(PID.TID 0000.0001)  tracer number :   42
(PID.TID 0000.0001) PTRACERS_names = /* Tracer short name */
(PID.TID 0000.0001)               'BIO_3_005'
(PID.TID 0000.0001)     ;
(PID.TID 0000.0001) PTRACERS_long_names = /* Tracer long name */
(PID.TID 0000.0001)               ''
(PID.TID 0000.0001)     ;
(PID.TID 0000.0001) PTRACERS_ioLabel = /* tracer IO Label */
(PID.TID 0000.0001)               '42'
(PID.TID 0000.0001)     ;
(PID.TID 0000.0001) PTRACERS_advScheme = /* Advection Scheme */
(PID.TID 0000.0001)                      33
(PID.TID 0000.0001)     ;
(PID.TID 0000.0001) PTRACERS_SOM_Advection = /* tracer uses SOM advection scheme */
(PID.TID 0000.0001)                   F
(PID.TID 0000.0001)     ;
(PID.TID 0000.0001) PTRACERS_ImplVertAdv = /* implicit vert. advection flag */
(PID.TID 0000.0001)                   F
(PID.TID 0000.0001)     ;
(PID.TID 0000.0001) PTRACERS_diffKh = /* Laplacian Diffusivity */
(PID.TID 0000.0001)                 0.000000000000000E+00
(PID.TID 0000.0001)     ;
(PID.TID 0000.0001) PTRACERS_diffK4 = /* Biharmonic Diffusivity */
(PID.TID 0000.0001)                 0.000000000000000E+00
(PID.TID 0000.0001)     ;
(PID.TID 0000.0001) PTRACERS_diffKrNr = /* Vertical Diffusivity */
(PID.TID 0000.0001)    35 @  1.000000000000000E-05              /* K =  1: 35 */
(PID.TID 0000.0001)     ;
(PID.TID 0000.0001) PTRACERS_useGMRedi = /* apply GM-Redi */
(PID.TID 0000.0001)                   F
(PID.TID 0000.0001)     ;
(PID.TID 0000.0001) PTRACERS_useDWNSLP = /* apply DOWN-SLOPE Flow */
(PID.TID 0000.0001)                   F
(PID.TID 0000.0001)     ;
(PID.TID 0000.0001) PTRACERS_useKPP = /* apply KPP scheme */
(PID.TID 0000.0001)                   T
(PID.TID 0000.0001)     ;
(PID.TID 0000.0001) PTRACERS_ref = /* Reference vertical profile */
(PID.TID 0000.0001)    35 @  0.000000000000000E+00              /* K =  1: 35 */
(PID.TID 0000.0001)     ;
(PID.TID 0000.0001) PTRACERS_EvPrRn =/* tracer conc. in Evap. & Rain */
(PID.TID 0000.0001)                 1.234567000000000E+05
(PID.TID 0000.0001)     ;
(PID.TID 0000.0001)  -----------------------------------
(PID.TID 0000.0001)  tracer number :   43
(PID.TID 0000.0001) PTRACERS_names = /* Tracer short name */
(PID.TID 0000.0001)               'BIO_3_006'
(PID.TID 0000.0001)     ;
(PID.TID 0000.0001) PTRACERS_long_names = /* Tracer long name */
(PID.TID 0000.0001)               ''
(PID.TID 0000.0001)     ;
(PID.TID 0000.0001) PTRACERS_ioLabel = /* tracer IO Label */
(PID.TID 0000.0001)               '43'
(PID.TID 0000.0001)     ;
(PID.TID 0000.0001) PTRACERS_advScheme = /* Advection Scheme */
(PID.TID 0000.0001)                      33
(PID.TID 0000.0001)     ;
(PID.TID 0000.0001) PTRACERS_SOM_Advection = /* tracer uses SOM advection scheme */
(PID.TID 0000.0001)                   F
(PID.TID 0000.0001)     ;
(PID.TID 0000.0001) PTRACERS_ImplVertAdv = /* implicit vert. advection flag */
(PID.TID 0000.0001)                   F
(PID.TID 0000.0001)     ;
(PID.TID 0000.0001) PTRACERS_diffKh = /* Laplacian Diffusivity */
(PID.TID 0000.0001)                 0.000000000000000E+00
(PID.TID 0000.0001)     ;
(PID.TID 0000.0001) PTRACERS_diffK4 = /* Biharmonic Diffusivity */
(PID.TID 0000.0001)                 0.000000000000000E+00
(PID.TID 0000.0001)     ;
(PID.TID 0000.0001) PTRACERS_diffKrNr = /* Vertical Diffusivity */
(PID.TID 0000.0001)    35 @  1.000000000000000E-05              /* K =  1: 35 */
(PID.TID 0000.0001)     ;
(PID.TID 0000.0001) PTRACERS_useGMRedi = /* apply GM-Redi */
(PID.TID 0000.0001)                   F
(PID.TID 0000.0001)     ;
(PID.TID 0000.0001) PTRACERS_useDWNSLP = /* apply DOWN-SLOPE Flow */
(PID.TID 0000.0001)                   F
(PID.TID 0000.0001)     ;
(PID.TID 0000.0001) PTRACERS_useKPP = /* apply KPP scheme */
(PID.TID 0000.0001)                   T
(PID.TID 0000.0001)     ;
(PID.TID 0000.0001) PTRACERS_ref = /* Reference vertical profile */
(PID.TID 0000.0001)    35 @  0.000000000000000E+00              /* K =  1: 35 */
(PID.TID 0000.0001)     ;
(PID.TID 0000.0001) PTRACERS_EvPrRn =/* tracer conc. in Evap. & Rain */
(PID.TID 0000.0001)                 1.234567000000000E+05
(PID.TID 0000.0001)     ;
(PID.TID 0000.0001)  -----------------------------------
(PID.TID 0000.0001)  tracer number :   44
(PID.TID 0000.0001) PTRACERS_names = /* Tracer short name */
(PID.TID 0000.0001)               'BIO_3_007'
(PID.TID 0000.0001)     ;
(PID.TID 0000.0001) PTRACERS_long_names = /* Tracer long name */
(PID.TID 0000.0001)               ''
(PID.TID 0000.0001)     ;
(PID.TID 0000.0001) PTRACERS_ioLabel = /* tracer IO Label */
(PID.TID 0000.0001)               '44'
(PID.TID 0000.0001)     ;
(PID.TID 0000.0001) PTRACERS_advScheme = /* Advection Scheme */
(PID.TID 0000.0001)                      33
(PID.TID 0000.0001)     ;
(PID.TID 0000.0001) PTRACERS_SOM_Advection = /* tracer uses SOM advection scheme */
(PID.TID 0000.0001)                   F
(PID.TID 0000.0001)     ;
(PID.TID 0000.0001) PTRACERS_ImplVertAdv = /* implicit vert. advection flag */
(PID.TID 0000.0001)                   F
(PID.TID 0000.0001)     ;
(PID.TID 0000.0001) PTRACERS_diffKh = /* Laplacian Diffusivity */
(PID.TID 0000.0001)                 0.000000000000000E+00
(PID.TID 0000.0001)     ;
(PID.TID 0000.0001) PTRACERS_diffK4 = /* Biharmonic Diffusivity */
(PID.TID 0000.0001)                 0.000000000000000E+00
(PID.TID 0000.0001)     ;
(PID.TID 0000.0001) PTRACERS_diffKrNr = /* Vertical Diffusivity */
(PID.TID 0000.0001)    35 @  1.000000000000000E-05              /* K =  1: 35 */
(PID.TID 0000.0001)     ;
(PID.TID 0000.0001) PTRACERS_useGMRedi = /* apply GM-Redi */
(PID.TID 0000.0001)                   F
(PID.TID 0000.0001)     ;
(PID.TID 0000.0001) PTRACERS_useDWNSLP = /* apply DOWN-SLOPE Flow */
(PID.TID 0000.0001)                   F
(PID.TID 0000.0001)     ;
(PID.TID 0000.0001) PTRACERS_useKPP = /* apply KPP scheme */
(PID.TID 0000.0001)                   T
(PID.TID 0000.0001)     ;
(PID.TID 0000.0001) PTRACERS_ref = /* Reference vertical profile */
(PID.TID 0000.0001)    35 @  0.000000000000000E+00              /* K =  1: 35 */
(PID.TID 0000.0001)     ;
(PID.TID 0000.0001) PTRACERS_EvPrRn =/* tracer conc. in Evap. & Rain */
(PID.TID 0000.0001)                 1.234567000000000E+05
(PID.TID 0000.0001)     ;
(PID.TID 0000.0001)  -----------------------------------
(PID.TID 0000.0001)  tracer number :   45
(PID.TID 0000.0001) PTRACERS_names = /* Tracer short name */
(PID.TID 0000.0001)               'BIO_3_008'
(PID.TID 0000.0001)     ;
(PID.TID 0000.0001) PTRACERS_long_names = /* Tracer long name */
(PID.TID 0000.0001)               ''
(PID.TID 0000.0001)     ;
(PID.TID 0000.0001) PTRACERS_ioLabel = /* tracer IO Label */
(PID.TID 0000.0001)               '45'
(PID.TID 0000.0001)     ;
(PID.TID 0000.0001) PTRACERS_advScheme = /* Advection Scheme */
(PID.TID 0000.0001)                      33
(PID.TID 0000.0001)     ;
(PID.TID 0000.0001) PTRACERS_SOM_Advection = /* tracer uses SOM advection scheme */
(PID.TID 0000.0001)                   F
(PID.TID 0000.0001)     ;
(PID.TID 0000.0001) PTRACERS_ImplVertAdv = /* implicit vert. advection flag */
(PID.TID 0000.0001)                   F
(PID.TID 0000.0001)     ;
(PID.TID 0000.0001) PTRACERS_diffKh = /* Laplacian Diffusivity */
(PID.TID 0000.0001)                 0.000000000000000E+00
(PID.TID 0000.0001)     ;
(PID.TID 0000.0001) PTRACERS_diffK4 = /* Biharmonic Diffusivity */
(PID.TID 0000.0001)                 0.000000000000000E+00
(PID.TID 0000.0001)     ;
(PID.TID 0000.0001) PTRACERS_diffKrNr = /* Vertical Diffusivity */
(PID.TID 0000.0001)    35 @  1.000000000000000E-05              /* K =  1: 35 */
(PID.TID 0000.0001)     ;
(PID.TID 0000.0001) PTRACERS_useGMRedi = /* apply GM-Redi */
(PID.TID 0000.0001)                   F
(PID.TID 0000.0001)     ;
(PID.TID 0000.0001) PTRACERS_useDWNSLP = /* apply DOWN-SLOPE Flow */
(PID.TID 0000.0001)                   F
(PID.TID 0000.0001)     ;
(PID.TID 0000.0001) PTRACERS_useKPP = /* apply KPP scheme */
(PID.TID 0000.0001)                   T
(PID.TID 0000.0001)     ;
(PID.TID 0000.0001) PTRACERS_ref = /* Reference vertical profile */
(PID.TID 0000.0001)    35 @  0.000000000000000E+00              /* K =  1: 35 */
(PID.TID 0000.0001)     ;
(PID.TID 0000.0001) PTRACERS_EvPrRn =/* tracer conc. in Evap. & Rain */
(PID.TID 0000.0001)                 1.234567000000000E+05
(PID.TID 0000.0001)     ;
(PID.TID 0000.0001)  -----------------------------------
(PID.TID 0000.0001)  tracer number :   46
(PID.TID 0000.0001) PTRACERS_names = /* Tracer short name */
(PID.TID 0000.0001)               'BIO_3_009'
(PID.TID 0000.0001)     ;
(PID.TID 0000.0001) PTRACERS_long_names = /* Tracer long name */
(PID.TID 0000.0001)               ''
(PID.TID 0000.0001)     ;
(PID.TID 0000.0001) PTRACERS_ioLabel = /* tracer IO Label */
(PID.TID 0000.0001)               '46'
(PID.TID 0000.0001)     ;
(PID.TID 0000.0001) PTRACERS_advScheme = /* Advection Scheme */
(PID.TID 0000.0001)                      33
(PID.TID 0000.0001)     ;
(PID.TID 0000.0001) PTRACERS_SOM_Advection = /* tracer uses SOM advection scheme */
(PID.TID 0000.0001)                   F
(PID.TID 0000.0001)     ;
(PID.TID 0000.0001) PTRACERS_ImplVertAdv = /* implicit vert. advection flag */
(PID.TID 0000.0001)                   F
(PID.TID 0000.0001)     ;
(PID.TID 0000.0001) PTRACERS_diffKh = /* Laplacian Diffusivity */
(PID.TID 0000.0001)                 0.000000000000000E+00
(PID.TID 0000.0001)     ;
(PID.TID 0000.0001) PTRACERS_diffK4 = /* Biharmonic Diffusivity */
(PID.TID 0000.0001)                 0.000000000000000E+00
(PID.TID 0000.0001)     ;
(PID.TID 0000.0001) PTRACERS_diffKrNr = /* Vertical Diffusivity */
(PID.TID 0000.0001)    35 @  1.000000000000000E-05              /* K =  1: 35 */
(PID.TID 0000.0001)     ;
(PID.TID 0000.0001) PTRACERS_useGMRedi = /* apply GM-Redi */
(PID.TID 0000.0001)                   F
(PID.TID 0000.0001)     ;
(PID.TID 0000.0001) PTRACERS_useDWNSLP = /* apply DOWN-SLOPE Flow */
(PID.TID 0000.0001)                   F
(PID.TID 0000.0001)     ;
(PID.TID 0000.0001) PTRACERS_useKPP = /* apply KPP scheme */
(PID.TID 0000.0001)                   T
(PID.TID 0000.0001)     ;
(PID.TID 0000.0001) PTRACERS_ref = /* Reference vertical profile */
(PID.TID 0000.0001)    35 @  0.000000000000000E+00              /* K =  1: 35 */
(PID.TID 0000.0001)     ;
(PID.TID 0000.0001) PTRACERS_EvPrRn =/* tracer conc. in Evap. & Rain */
(PID.TID 0000.0001)                 1.234567000000000E+05
(PID.TID 0000.0001)     ;
(PID.TID 0000.0001)  -----------------------------------
(PID.TID 0000.0001)  tracer number :   47
(PID.TID 0000.0001) PTRACERS_names = /* Tracer short name */
(PID.TID 0000.0001)               'BIO_3_010'
(PID.TID 0000.0001)     ;
(PID.TID 0000.0001) PTRACERS_long_names = /* Tracer long name */
(PID.TID 0000.0001)               ''
(PID.TID 0000.0001)     ;
(PID.TID 0000.0001) PTRACERS_ioLabel = /* tracer IO Label */
(PID.TID 0000.0001)               '47'
(PID.TID 0000.0001)     ;
(PID.TID 0000.0001) PTRACERS_advScheme = /* Advection Scheme */
(PID.TID 0000.0001)                      33
(PID.TID 0000.0001)     ;
(PID.TID 0000.0001) PTRACERS_SOM_Advection = /* tracer uses SOM advection scheme */
(PID.TID 0000.0001)                   F
(PID.TID 0000.0001)     ;
(PID.TID 0000.0001) PTRACERS_ImplVertAdv = /* implicit vert. advection flag */
(PID.TID 0000.0001)                   F
(PID.TID 0000.0001)     ;
(PID.TID 0000.0001) PTRACERS_diffKh = /* Laplacian Diffusivity */
(PID.TID 0000.0001)                 0.000000000000000E+00
(PID.TID 0000.0001)     ;
(PID.TID 0000.0001) PTRACERS_diffK4 = /* Biharmonic Diffusivity */
(PID.TID 0000.0001)                 0.000000000000000E+00
(PID.TID 0000.0001)     ;
(PID.TID 0000.0001) PTRACERS_diffKrNr = /* Vertical Diffusivity */
(PID.TID 0000.0001)    35 @  1.000000000000000E-05              /* K =  1: 35 */
(PID.TID 0000.0001)     ;
(PID.TID 0000.0001) PTRACERS_useGMRedi = /* apply GM-Redi */
(PID.TID 0000.0001)                   F
(PID.TID 0000.0001)     ;
(PID.TID 0000.0001) PTRACERS_useDWNSLP = /* apply DOWN-SLOPE Flow */
(PID.TID 0000.0001)                   F
(PID.TID 0000.0001)     ;
(PID.TID 0000.0001) PTRACERS_useKPP = /* apply KPP scheme */
(PID.TID 0000.0001)                   T
(PID.TID 0000.0001)     ;
(PID.TID 0000.0001) PTRACERS_ref = /* Reference vertical profile */
(PID.TID 0000.0001)    35 @  0.000000000000000E+00              /* K =  1: 35 */
(PID.TID 0000.0001)     ;
(PID.TID 0000.0001) PTRACERS_EvPrRn =/* tracer conc. in Evap. & Rain */
(PID.TID 0000.0001)                 1.234567000000000E+05
(PID.TID 0000.0001)     ;
(PID.TID 0000.0001)  -----------------------------------
(PID.TID 0000.0001)  tracer number :   48
(PID.TID 0000.0001) PTRACERS_names = /* Tracer short name */
(PID.TID 0000.0001)               'BIO_3_011'
(PID.TID 0000.0001)     ;
(PID.TID 0000.0001) PTRACERS_long_names = /* Tracer long name */
(PID.TID 0000.0001)               ''
(PID.TID 0000.0001)     ;
(PID.TID 0000.0001) PTRACERS_ioLabel = /* tracer IO Label */
(PID.TID 0000.0001)               '48'
(PID.TID 0000.0001)     ;
(PID.TID 0000.0001) PTRACERS_advScheme = /* Advection Scheme */
(PID.TID 0000.0001)                      33
(PID.TID 0000.0001)     ;
(PID.TID 0000.0001) PTRACERS_SOM_Advection = /* tracer uses SOM advection scheme */
(PID.TID 0000.0001)                   F
(PID.TID 0000.0001)     ;
(PID.TID 0000.0001) PTRACERS_ImplVertAdv = /* implicit vert. advection flag */
(PID.TID 0000.0001)                   F
(PID.TID 0000.0001)     ;
(PID.TID 0000.0001) PTRACERS_diffKh = /* Laplacian Diffusivity */
(PID.TID 0000.0001)                 0.000000000000000E+00
(PID.TID 0000.0001)     ;
(PID.TID 0000.0001) PTRACERS_diffK4 = /* Biharmonic Diffusivity */
(PID.TID 0000.0001)                 0.000000000000000E+00
(PID.TID 0000.0001)     ;
(PID.TID 0000.0001) PTRACERS_diffKrNr = /* Vertical Diffusivity */
(PID.TID 0000.0001)    35 @  1.000000000000000E-05              /* K =  1: 35 */
(PID.TID 0000.0001)     ;
(PID.TID 0000.0001) PTRACERS_useGMRedi = /* apply GM-Redi */
(PID.TID 0000.0001)                   F
(PID.TID 0000.0001)     ;
(PID.TID 0000.0001) PTRACERS_useDWNSLP = /* apply DOWN-SLOPE Flow */
(PID.TID 0000.0001)                   F
(PID.TID 0000.0001)     ;
(PID.TID 0000.0001) PTRACERS_useKPP = /* apply KPP scheme */
(PID.TID 0000.0001)                   T
(PID.TID 0000.0001)     ;
(PID.TID 0000.0001) PTRACERS_ref = /* Reference vertical profile */
(PID.TID 0000.0001)    35 @  0.000000000000000E+00              /* K =  1: 35 */
(PID.TID 0000.0001)     ;
(PID.TID 0000.0001) PTRACERS_EvPrRn =/* tracer conc. in Evap. & Rain */
(PID.TID 0000.0001)                 1.234567000000000E+05
(PID.TID 0000.0001)     ;
(PID.TID 0000.0001)  -----------------------------------
(PID.TID 0000.0001)  tracer number :   49
(PID.TID 0000.0001) PTRACERS_names = /* Tracer short name */
(PID.TID 0000.0001)               'BIO_3_012'
(PID.TID 0000.0001)     ;
(PID.TID 0000.0001) PTRACERS_long_names = /* Tracer long name */
(PID.TID 0000.0001)               ''
(PID.TID 0000.0001)     ;
(PID.TID 0000.0001) PTRACERS_ioLabel = /* tracer IO Label */
(PID.TID 0000.0001)               '49'
(PID.TID 0000.0001)     ;
(PID.TID 0000.0001) PTRACERS_advScheme = /* Advection Scheme */
(PID.TID 0000.0001)                      33
(PID.TID 0000.0001)     ;
(PID.TID 0000.0001) PTRACERS_SOM_Advection = /* tracer uses SOM advection scheme */
(PID.TID 0000.0001)                   F
(PID.TID 0000.0001)     ;
(PID.TID 0000.0001) PTRACERS_ImplVertAdv = /* implicit vert. advection flag */
(PID.TID 0000.0001)                   F
(PID.TID 0000.0001)     ;
(PID.TID 0000.0001) PTRACERS_diffKh = /* Laplacian Diffusivity */
(PID.TID 0000.0001)                 0.000000000000000E+00
(PID.TID 0000.0001)     ;
(PID.TID 0000.0001) PTRACERS_diffK4 = /* Biharmonic Diffusivity */
(PID.TID 0000.0001)                 0.000000000000000E+00
(PID.TID 0000.0001)     ;
(PID.TID 0000.0001) PTRACERS_diffKrNr = /* Vertical Diffusivity */
(PID.TID 0000.0001)    35 @  1.000000000000000E-05              /* K =  1: 35 */
(PID.TID 0000.0001)     ;
(PID.TID 0000.0001) PTRACERS_useGMRedi = /* apply GM-Redi */
(PID.TID 0000.0001)                   F
(PID.TID 0000.0001)     ;
(PID.TID 0000.0001) PTRACERS_useDWNSLP = /* apply DOWN-SLOPE Flow */
(PID.TID 0000.0001)                   F
(PID.TID 0000.0001)     ;
(PID.TID 0000.0001) PTRACERS_useKPP = /* apply KPP scheme */
(PID.TID 0000.0001)                   T
(PID.TID 0000.0001)     ;
(PID.TID 0000.0001) PTRACERS_ref = /* Reference vertical profile */
(PID.TID 0000.0001)    35 @  0.000000000000000E+00              /* K =  1: 35 */
(PID.TID 0000.0001)     ;
(PID.TID 0000.0001) PTRACERS_EvPrRn =/* tracer conc. in Evap. & Rain */
(PID.TID 0000.0001)                 1.234567000000000E+05
(PID.TID 0000.0001)     ;
(PID.TID 0000.0001)  -----------------------------------
(PID.TID 0000.0001)  tracer number :   50
(PID.TID 0000.0001) PTRACERS_names = /* Tracer short name */
(PID.TID 0000.0001)               'BIO_3_013'
(PID.TID 0000.0001)     ;
(PID.TID 0000.0001) PTRACERS_long_names = /* Tracer long name */
(PID.TID 0000.0001)               ''
(PID.TID 0000.0001)     ;
(PID.TID 0000.0001) PTRACERS_ioLabel = /* tracer IO Label */
(PID.TID 0000.0001)               '50'
(PID.TID 0000.0001)     ;
(PID.TID 0000.0001) PTRACERS_advScheme = /* Advection Scheme */
(PID.TID 0000.0001)                      33
(PID.TID 0000.0001)     ;
(PID.TID 0000.0001) PTRACERS_SOM_Advection = /* tracer uses SOM advection scheme */
(PID.TID 0000.0001)                   F
(PID.TID 0000.0001)     ;
(PID.TID 0000.0001) PTRACERS_ImplVertAdv = /* implicit vert. advection flag */
(PID.TID 0000.0001)                   F
(PID.TID 0000.0001)     ;
(PID.TID 0000.0001) PTRACERS_diffKh = /* Laplacian Diffusivity */
(PID.TID 0000.0001)                 0.000000000000000E+00
(PID.TID 0000.0001)     ;
(PID.TID 0000.0001) PTRACERS_diffK4 = /* Biharmonic Diffusivity */
(PID.TID 0000.0001)                 0.000000000000000E+00
(PID.TID 0000.0001)     ;
(PID.TID 0000.0001) PTRACERS_diffKrNr = /* Vertical Diffusivity */
(PID.TID 0000.0001)    35 @  1.000000000000000E-05              /* K =  1: 35 */
(PID.TID 0000.0001)     ;
(PID.TID 0000.0001) PTRACERS_useGMRedi = /* apply GM-Redi */
(PID.TID 0000.0001)                   F
(PID.TID 0000.0001)     ;
(PID.TID 0000.0001) PTRACERS_useDWNSLP = /* apply DOWN-SLOPE Flow */
(PID.TID 0000.0001)                   F
(PID.TID 0000.0001)     ;
(PID.TID 0000.0001) PTRACERS_useKPP = /* apply KPP scheme */
(PID.TID 0000.0001)                   T
(PID.TID 0000.0001)     ;
(PID.TID 0000.0001) PTRACERS_ref = /* Reference vertical profile */
(PID.TID 0000.0001)    35 @  0.000000000000000E+00              /* K =  1: 35 */
(PID.TID 0000.0001)     ;
(PID.TID 0000.0001) PTRACERS_EvPrRn =/* tracer conc. in Evap. & Rain */
(PID.TID 0000.0001)                 1.234567000000000E+05
(PID.TID 0000.0001)     ;
(PID.TID 0000.0001)  -----------------------------------
(PID.TID 0000.0001)  tracer number :   51
(PID.TID 0000.0001) PTRACERS_names = /* Tracer short name */
(PID.TID 0000.0001)               'BIO_3_014'
(PID.TID 0000.0001)     ;
(PID.TID 0000.0001) PTRACERS_long_names = /* Tracer long name */
(PID.TID 0000.0001)               ''
(PID.TID 0000.0001)     ;
(PID.TID 0000.0001) PTRACERS_ioLabel = /* tracer IO Label */
(PID.TID 0000.0001)               '51'
(PID.TID 0000.0001)     ;
(PID.TID 0000.0001) PTRACERS_advScheme = /* Advection Scheme */
(PID.TID 0000.0001)                      33
(PID.TID 0000.0001)     ;
(PID.TID 0000.0001) PTRACERS_SOM_Advection = /* tracer uses SOM advection scheme */
(PID.TID 0000.0001)                   F
(PID.TID 0000.0001)     ;
(PID.TID 0000.0001) PTRACERS_ImplVertAdv = /* implicit vert. advection flag */
(PID.TID 0000.0001)                   F
(PID.TID 0000.0001)     ;
(PID.TID 0000.0001) PTRACERS_diffKh = /* Laplacian Diffusivity */
(PID.TID 0000.0001)                 0.000000000000000E+00
(PID.TID 0000.0001)     ;
(PID.TID 0000.0001) PTRACERS_diffK4 = /* Biharmonic Diffusivity */
(PID.TID 0000.0001)                 0.000000000000000E+00
(PID.TID 0000.0001)     ;
(PID.TID 0000.0001) PTRACERS_diffKrNr = /* Vertical Diffusivity */
(PID.TID 0000.0001)    35 @  1.000000000000000E-05              /* K =  1: 35 */
(PID.TID 0000.0001)     ;
(PID.TID 0000.0001) PTRACERS_useGMRedi = /* apply GM-Redi */
(PID.TID 0000.0001)                   F
(PID.TID 0000.0001)     ;
(PID.TID 0000.0001) PTRACERS_useDWNSLP = /* apply DOWN-SLOPE Flow */
(PID.TID 0000.0001)                   F
(PID.TID 0000.0001)     ;
(PID.TID 0000.0001) PTRACERS_useKPP = /* apply KPP scheme */
(PID.TID 0000.0001)                   T
(PID.TID 0000.0001)     ;
(PID.TID 0000.0001) PTRACERS_ref = /* Reference vertical profile */
(PID.TID 0000.0001)    35 @  0.000000000000000E+00              /* K =  1: 35 */
(PID.TID 0000.0001)     ;
(PID.TID 0000.0001) PTRACERS_EvPrRn =/* tracer conc. in Evap. & Rain */
(PID.TID 0000.0001)                 1.234567000000000E+05
(PID.TID 0000.0001)     ;
(PID.TID 0000.0001)  -----------------------------------
(PID.TID 0000.0001)  tracer number :   52
(PID.TID 0000.0001) PTRACERS_names = /* Tracer short name */
(PID.TID 0000.0001)               'BIO_3_015'
(PID.TID 0000.0001)     ;
(PID.TID 0000.0001) PTRACERS_long_names = /* Tracer long name */
(PID.TID 0000.0001)               ''
(PID.TID 0000.0001)     ;
(PID.TID 0000.0001) PTRACERS_ioLabel = /* tracer IO Label */
(PID.TID 0000.0001)               '52'
(PID.TID 0000.0001)     ;
(PID.TID 0000.0001) PTRACERS_advScheme = /* Advection Scheme */
(PID.TID 0000.0001)                      33
(PID.TID 0000.0001)     ;
(PID.TID 0000.0001) PTRACERS_SOM_Advection = /* tracer uses SOM advection scheme */
(PID.TID 0000.0001)                   F
(PID.TID 0000.0001)     ;
(PID.TID 0000.0001) PTRACERS_ImplVertAdv = /* implicit vert. advection flag */
(PID.TID 0000.0001)                   F
(PID.TID 0000.0001)     ;
(PID.TID 0000.0001) PTRACERS_diffKh = /* Laplacian Diffusivity */
(PID.TID 0000.0001)                 0.000000000000000E+00
(PID.TID 0000.0001)     ;
(PID.TID 0000.0001) PTRACERS_diffK4 = /* Biharmonic Diffusivity */
(PID.TID 0000.0001)                 0.000000000000000E+00
(PID.TID 0000.0001)     ;
(PID.TID 0000.0001) PTRACERS_diffKrNr = /* Vertical Diffusivity */
(PID.TID 0000.0001)    35 @  1.000000000000000E-05              /* K =  1: 35 */
(PID.TID 0000.0001)     ;
(PID.TID 0000.0001) PTRACERS_useGMRedi = /* apply GM-Redi */
(PID.TID 0000.0001)                   F
(PID.TID 0000.0001)     ;
(PID.TID 0000.0001) PTRACERS_useDWNSLP = /* apply DOWN-SLOPE Flow */
(PID.TID 0000.0001)                   F
(PID.TID 0000.0001)     ;
(PID.TID 0000.0001) PTRACERS_useKPP = /* apply KPP scheme */
(PID.TID 0000.0001)                   T
(PID.TID 0000.0001)     ;
(PID.TID 0000.0001) PTRACERS_ref = /* Reference vertical profile */
(PID.TID 0000.0001)    35 @  0.000000000000000E+00              /* K =  1: 35 */
(PID.TID 0000.0001)     ;
(PID.TID 0000.0001) PTRACERS_EvPrRn =/* tracer conc. in Evap. & Rain */
(PID.TID 0000.0001)                 1.234567000000000E+05
(PID.TID 0000.0001)     ;
(PID.TID 0000.0001)  -----------------------------------
(PID.TID 0000.0001)  tracer number :   53
(PID.TID 0000.0001) PTRACERS_names = /* Tracer short name */
(PID.TID 0000.0001)               'BIO_3_016'
(PID.TID 0000.0001)     ;
(PID.TID 0000.0001) PTRACERS_long_names = /* Tracer long name */
(PID.TID 0000.0001)               ''
(PID.TID 0000.0001)     ;
(PID.TID 0000.0001) PTRACERS_ioLabel = /* tracer IO Label */
(PID.TID 0000.0001)               '53'
(PID.TID 0000.0001)     ;
(PID.TID 0000.0001) PTRACERS_advScheme = /* Advection Scheme */
(PID.TID 0000.0001)                      33
(PID.TID 0000.0001)     ;
(PID.TID 0000.0001) PTRACERS_SOM_Advection = /* tracer uses SOM advection scheme */
(PID.TID 0000.0001)                   F
(PID.TID 0000.0001)     ;
(PID.TID 0000.0001) PTRACERS_ImplVertAdv = /* implicit vert. advection flag */
(PID.TID 0000.0001)                   F
(PID.TID 0000.0001)     ;
(PID.TID 0000.0001) PTRACERS_diffKh = /* Laplacian Diffusivity */
(PID.TID 0000.0001)                 0.000000000000000E+00
(PID.TID 0000.0001)     ;
(PID.TID 0000.0001) PTRACERS_diffK4 = /* Biharmonic Diffusivity */
(PID.TID 0000.0001)                 0.000000000000000E+00
(PID.TID 0000.0001)     ;
(PID.TID 0000.0001) PTRACERS_diffKrNr = /* Vertical Diffusivity */
(PID.TID 0000.0001)    35 @  1.000000000000000E-05              /* K =  1: 35 */
(PID.TID 0000.0001)     ;
(PID.TID 0000.0001) PTRACERS_useGMRedi = /* apply GM-Redi */
(PID.TID 0000.0001)                   F
(PID.TID 0000.0001)     ;
(PID.TID 0000.0001) PTRACERS_useDWNSLP = /* apply DOWN-SLOPE Flow */
(PID.TID 0000.0001)                   F
(PID.TID 0000.0001)     ;
(PID.TID 0000.0001) PTRACERS_useKPP = /* apply KPP scheme */
(PID.TID 0000.0001)                   T
(PID.TID 0000.0001)     ;
(PID.TID 0000.0001) PTRACERS_ref = /* Reference vertical profile */
(PID.TID 0000.0001)    35 @  0.000000000000000E+00              /* K =  1: 35 */
(PID.TID 0000.0001)     ;
(PID.TID 0000.0001) PTRACERS_EvPrRn =/* tracer conc. in Evap. & Rain */
(PID.TID 0000.0001)                 1.234567000000000E+05
(PID.TID 0000.0001)     ;
(PID.TID 0000.0001)  -----------------------------------
(PID.TID 0000.0001)  tracer number :   54
(PID.TID 0000.0001) PTRACERS_names = /* Tracer short name */
(PID.TID 0000.0001)               'BIO_4_001'
(PID.TID 0000.0001)     ;
(PID.TID 0000.0001) PTRACERS_long_names = /* Tracer long name */
(PID.TID 0000.0001)               ''
(PID.TID 0000.0001)     ;
(PID.TID 0000.0001) PTRACERS_ioLabel = /* tracer IO Label */
(PID.TID 0000.0001)               '54'
(PID.TID 0000.0001)     ;
(PID.TID 0000.0001) PTRACERS_advScheme = /* Advection Scheme */
(PID.TID 0000.0001)                      33
(PID.TID 0000.0001)     ;
(PID.TID 0000.0001) PTRACERS_SOM_Advection = /* tracer uses SOM advection scheme */
(PID.TID 0000.0001)                   F
(PID.TID 0000.0001)     ;
(PID.TID 0000.0001) PTRACERS_ImplVertAdv = /* implicit vert. advection flag */
(PID.TID 0000.0001)                   F
(PID.TID 0000.0001)     ;
(PID.TID 0000.0001) PTRACERS_diffKh = /* Laplacian Diffusivity */
(PID.TID 0000.0001)                 0.000000000000000E+00
(PID.TID 0000.0001)     ;
(PID.TID 0000.0001) PTRACERS_diffK4 = /* Biharmonic Diffusivity */
(PID.TID 0000.0001)                 0.000000000000000E+00
(PID.TID 0000.0001)     ;
(PID.TID 0000.0001) PTRACERS_diffKrNr = /* Vertical Diffusivity */
(PID.TID 0000.0001)    35 @  1.000000000000000E-05              /* K =  1: 35 */
(PID.TID 0000.0001)     ;
(PID.TID 0000.0001) PTRACERS_useGMRedi = /* apply GM-Redi */
(PID.TID 0000.0001)                   F
(PID.TID 0000.0001)     ;
(PID.TID 0000.0001) PTRACERS_useDWNSLP = /* apply DOWN-SLOPE Flow */
(PID.TID 0000.0001)                   F
(PID.TID 0000.0001)     ;
(PID.TID 0000.0001) PTRACERS_useKPP = /* apply KPP scheme */
(PID.TID 0000.0001)                   T
(PID.TID 0000.0001)     ;
(PID.TID 0000.0001) PTRACERS_ref = /* Reference vertical profile */
(PID.TID 0000.0001)    35 @  0.000000000000000E+00              /* K =  1: 35 */
(PID.TID 0000.0001)     ;
(PID.TID 0000.0001) PTRACERS_EvPrRn =/* tracer conc. in Evap. & Rain */
(PID.TID 0000.0001)                 1.234567000000000E+05
(PID.TID 0000.0001)     ;
(PID.TID 0000.0001)  -----------------------------------
(PID.TID 0000.0001)  tracer number :   55
(PID.TID 0000.0001) PTRACERS_names = /* Tracer short name */
(PID.TID 0000.0001)               'BIO_4_002'
(PID.TID 0000.0001)     ;
(PID.TID 0000.0001) PTRACERS_long_names = /* Tracer long name */
(PID.TID 0000.0001)               ''
(PID.TID 0000.0001)     ;
(PID.TID 0000.0001) PTRACERS_ioLabel = /* tracer IO Label */
(PID.TID 0000.0001)               '55'
(PID.TID 0000.0001)     ;
(PID.TID 0000.0001) PTRACERS_advScheme = /* Advection Scheme */
(PID.TID 0000.0001)                      33
(PID.TID 0000.0001)     ;
(PID.TID 0000.0001) PTRACERS_SOM_Advection = /* tracer uses SOM advection scheme */
(PID.TID 0000.0001)                   F
(PID.TID 0000.0001)     ;
(PID.TID 0000.0001) PTRACERS_ImplVertAdv = /* implicit vert. advection flag */
(PID.TID 0000.0001)                   F
(PID.TID 0000.0001)     ;
(PID.TID 0000.0001) PTRACERS_diffKh = /* Laplacian Diffusivity */
(PID.TID 0000.0001)                 0.000000000000000E+00
(PID.TID 0000.0001)     ;
(PID.TID 0000.0001) PTRACERS_diffK4 = /* Biharmonic Diffusivity */
(PID.TID 0000.0001)                 0.000000000000000E+00
(PID.TID 0000.0001)     ;
(PID.TID 0000.0001) PTRACERS_diffKrNr = /* Vertical Diffusivity */
(PID.TID 0000.0001)    35 @  1.000000000000000E-05              /* K =  1: 35 */
(PID.TID 0000.0001)     ;
(PID.TID 0000.0001) PTRACERS_useGMRedi = /* apply GM-Redi */
(PID.TID 0000.0001)                   F
(PID.TID 0000.0001)     ;
(PID.TID 0000.0001) PTRACERS_useDWNSLP = /* apply DOWN-SLOPE Flow */
(PID.TID 0000.0001)                   F
(PID.TID 0000.0001)     ;
(PID.TID 0000.0001) PTRACERS_useKPP = /* apply KPP scheme */
(PID.TID 0000.0001)                   T
(PID.TID 0000.0001)     ;
(PID.TID 0000.0001) PTRACERS_ref = /* Reference vertical profile */
(PID.TID 0000.0001)    35 @  0.000000000000000E+00              /* K =  1: 35 */
(PID.TID 0000.0001)     ;
(PID.TID 0000.0001) PTRACERS_EvPrRn =/* tracer conc. in Evap. & Rain */
(PID.TID 0000.0001)                 1.234567000000000E+05
(PID.TID 0000.0001)     ;
(PID.TID 0000.0001)  -----------------------------------
(PID.TID 0000.0001)  tracer number :   56
(PID.TID 0000.0001) PTRACERS_names = /* Tracer short name */
(PID.TID 0000.0001)               'BIO_4_003'
(PID.TID 0000.0001)     ;
(PID.TID 0000.0001) PTRACERS_long_names = /* Tracer long name */
(PID.TID 0000.0001)               ''
(PID.TID 0000.0001)     ;
(PID.TID 0000.0001) PTRACERS_ioLabel = /* tracer IO Label */
(PID.TID 0000.0001)               '56'
(PID.TID 0000.0001)     ;
(PID.TID 0000.0001) PTRACERS_advScheme = /* Advection Scheme */
(PID.TID 0000.0001)                      33
(PID.TID 0000.0001)     ;
(PID.TID 0000.0001) PTRACERS_SOM_Advection = /* tracer uses SOM advection scheme */
(PID.TID 0000.0001)                   F
(PID.TID 0000.0001)     ;
(PID.TID 0000.0001) PTRACERS_ImplVertAdv = /* implicit vert. advection flag */
(PID.TID 0000.0001)                   F
(PID.TID 0000.0001)     ;
(PID.TID 0000.0001) PTRACERS_diffKh = /* Laplacian Diffusivity */
(PID.TID 0000.0001)                 0.000000000000000E+00
(PID.TID 0000.0001)     ;
(PID.TID 0000.0001) PTRACERS_diffK4 = /* Biharmonic Diffusivity */
(PID.TID 0000.0001)                 0.000000000000000E+00
(PID.TID 0000.0001)     ;
(PID.TID 0000.0001) PTRACERS_diffKrNr = /* Vertical Diffusivity */
(PID.TID 0000.0001)    35 @  1.000000000000000E-05              /* K =  1: 35 */
(PID.TID 0000.0001)     ;
(PID.TID 0000.0001) PTRACERS_useGMRedi = /* apply GM-Redi */
(PID.TID 0000.0001)                   F
(PID.TID 0000.0001)     ;
(PID.TID 0000.0001) PTRACERS_useDWNSLP = /* apply DOWN-SLOPE Flow */
(PID.TID 0000.0001)                   F
(PID.TID 0000.0001)     ;
(PID.TID 0000.0001) PTRACERS_useKPP = /* apply KPP scheme */
(PID.TID 0000.0001)                   T
(PID.TID 0000.0001)     ;
(PID.TID 0000.0001) PTRACERS_ref = /* Reference vertical profile */
(PID.TID 0000.0001)    35 @  0.000000000000000E+00              /* K =  1: 35 */
(PID.TID 0000.0001)     ;
(PID.TID 0000.0001) PTRACERS_EvPrRn =/* tracer conc. in Evap. & Rain */
(PID.TID 0000.0001)                 1.234567000000000E+05
(PID.TID 0000.0001)     ;
(PID.TID 0000.0001)  -----------------------------------
(PID.TID 0000.0001)  tracer number :   57
(PID.TID 0000.0001) PTRACERS_names = /* Tracer short name */
(PID.TID 0000.0001)               'BIO_4_004'
(PID.TID 0000.0001)     ;
(PID.TID 0000.0001) PTRACERS_long_names = /* Tracer long name */
(PID.TID 0000.0001)               ''
(PID.TID 0000.0001)     ;
(PID.TID 0000.0001) PTRACERS_ioLabel = /* tracer IO Label */
(PID.TID 0000.0001)               '57'
(PID.TID 0000.0001)     ;
(PID.TID 0000.0001) PTRACERS_advScheme = /* Advection Scheme */
(PID.TID 0000.0001)                      33
(PID.TID 0000.0001)     ;
(PID.TID 0000.0001) PTRACERS_SOM_Advection = /* tracer uses SOM advection scheme */
(PID.TID 0000.0001)                   F
(PID.TID 0000.0001)     ;
(PID.TID 0000.0001) PTRACERS_ImplVertAdv = /* implicit vert. advection flag */
(PID.TID 0000.0001)                   F
(PID.TID 0000.0001)     ;
(PID.TID 0000.0001) PTRACERS_diffKh = /* Laplacian Diffusivity */
(PID.TID 0000.0001)                 0.000000000000000E+00
(PID.TID 0000.0001)     ;
(PID.TID 0000.0001) PTRACERS_diffK4 = /* Biharmonic Diffusivity */
(PID.TID 0000.0001)                 0.000000000000000E+00
(PID.TID 0000.0001)     ;
(PID.TID 0000.0001) PTRACERS_diffKrNr = /* Vertical Diffusivity */
(PID.TID 0000.0001)    35 @  1.000000000000000E-05              /* K =  1: 35 */
(PID.TID 0000.0001)     ;
(PID.TID 0000.0001) PTRACERS_useGMRedi = /* apply GM-Redi */
(PID.TID 0000.0001)                   F
(PID.TID 0000.0001)     ;
(PID.TID 0000.0001) PTRACERS_useDWNSLP = /* apply DOWN-SLOPE Flow */
(PID.TID 0000.0001)                   F
(PID.TID 0000.0001)     ;
(PID.TID 0000.0001) PTRACERS_useKPP = /* apply KPP scheme */
(PID.TID 0000.0001)                   T
(PID.TID 0000.0001)     ;
(PID.TID 0000.0001) PTRACERS_ref = /* Reference vertical profile */
(PID.TID 0000.0001)    35 @  0.000000000000000E+00              /* K =  1: 35 */
(PID.TID 0000.0001)     ;
(PID.TID 0000.0001) PTRACERS_EvPrRn =/* tracer conc. in Evap. & Rain */
(PID.TID 0000.0001)                 1.234567000000000E+05
(PID.TID 0000.0001)     ;
(PID.TID 0000.0001)  -----------------------------------
(PID.TID 0000.0001)  tracer number :   58
(PID.TID 0000.0001) PTRACERS_names = /* Tracer short name */
(PID.TID 0000.0001)               'BIO_4_005'
(PID.TID 0000.0001)     ;
(PID.TID 0000.0001) PTRACERS_long_names = /* Tracer long name */
(PID.TID 0000.0001)               ''
(PID.TID 0000.0001)     ;
(PID.TID 0000.0001) PTRACERS_ioLabel = /* tracer IO Label */
(PID.TID 0000.0001)               '58'
(PID.TID 0000.0001)     ;
(PID.TID 0000.0001) PTRACERS_advScheme = /* Advection Scheme */
(PID.TID 0000.0001)                      33
(PID.TID 0000.0001)     ;
(PID.TID 0000.0001) PTRACERS_SOM_Advection = /* tracer uses SOM advection scheme */
(PID.TID 0000.0001)                   F
(PID.TID 0000.0001)     ;
(PID.TID 0000.0001) PTRACERS_ImplVertAdv = /* implicit vert. advection flag */
(PID.TID 0000.0001)                   F
(PID.TID 0000.0001)     ;
(PID.TID 0000.0001) PTRACERS_diffKh = /* Laplacian Diffusivity */
(PID.TID 0000.0001)                 0.000000000000000E+00
(PID.TID 0000.0001)     ;
(PID.TID 0000.0001) PTRACERS_diffK4 = /* Biharmonic Diffusivity */
(PID.TID 0000.0001)                 0.000000000000000E+00
(PID.TID 0000.0001)     ;
(PID.TID 0000.0001) PTRACERS_diffKrNr = /* Vertical Diffusivity */
(PID.TID 0000.0001)    35 @  1.000000000000000E-05              /* K =  1: 35 */
(PID.TID 0000.0001)     ;
(PID.TID 0000.0001) PTRACERS_useGMRedi = /* apply GM-Redi */
(PID.TID 0000.0001)                   F
(PID.TID 0000.0001)     ;
(PID.TID 0000.0001) PTRACERS_useDWNSLP = /* apply DOWN-SLOPE Flow */
(PID.TID 0000.0001)                   F
(PID.TID 0000.0001)     ;
(PID.TID 0000.0001) PTRACERS_useKPP = /* apply KPP scheme */
(PID.TID 0000.0001)                   T
(PID.TID 0000.0001)     ;
(PID.TID 0000.0001) PTRACERS_ref = /* Reference vertical profile */
(PID.TID 0000.0001)    35 @  0.000000000000000E+00              /* K =  1: 35 */
(PID.TID 0000.0001)     ;
(PID.TID 0000.0001) PTRACERS_EvPrRn =/* tracer conc. in Evap. & Rain */
(PID.TID 0000.0001)                 1.234567000000000E+05
(PID.TID 0000.0001)     ;
(PID.TID 0000.0001)  -----------------------------------
(PID.TID 0000.0001)  tracer number :   59
(PID.TID 0000.0001) PTRACERS_names = /* Tracer short name */
(PID.TID 0000.0001)               'BIO_4_006'
(PID.TID 0000.0001)     ;
(PID.TID 0000.0001) PTRACERS_long_names = /* Tracer long name */
(PID.TID 0000.0001)               ''
(PID.TID 0000.0001)     ;
(PID.TID 0000.0001) PTRACERS_ioLabel = /* tracer IO Label */
(PID.TID 0000.0001)               '59'
(PID.TID 0000.0001)     ;
(PID.TID 0000.0001) PTRACERS_advScheme = /* Advection Scheme */
(PID.TID 0000.0001)                      33
(PID.TID 0000.0001)     ;
(PID.TID 0000.0001) PTRACERS_SOM_Advection = /* tracer uses SOM advection scheme */
(PID.TID 0000.0001)                   F
(PID.TID 0000.0001)     ;
(PID.TID 0000.0001) PTRACERS_ImplVertAdv = /* implicit vert. advection flag */
(PID.TID 0000.0001)                   F
(PID.TID 0000.0001)     ;
(PID.TID 0000.0001) PTRACERS_diffKh = /* Laplacian Diffusivity */
(PID.TID 0000.0001)                 0.000000000000000E+00
(PID.TID 0000.0001)     ;
(PID.TID 0000.0001) PTRACERS_diffK4 = /* Biharmonic Diffusivity */
(PID.TID 0000.0001)                 0.000000000000000E+00
(PID.TID 0000.0001)     ;
(PID.TID 0000.0001) PTRACERS_diffKrNr = /* Vertical Diffusivity */
(PID.TID 0000.0001)    35 @  1.000000000000000E-05              /* K =  1: 35 */
(PID.TID 0000.0001)     ;
(PID.TID 0000.0001) PTRACERS_useGMRedi = /* apply GM-Redi */
(PID.TID 0000.0001)                   F
(PID.TID 0000.0001)     ;
(PID.TID 0000.0001) PTRACERS_useDWNSLP = /* apply DOWN-SLOPE Flow */
(PID.TID 0000.0001)                   F
(PID.TID 0000.0001)     ;
(PID.TID 0000.0001) PTRACERS_useKPP = /* apply KPP scheme */
(PID.TID 0000.0001)                   T
(PID.TID 0000.0001)     ;
(PID.TID 0000.0001) PTRACERS_ref = /* Reference vertical profile */
(PID.TID 0000.0001)    35 @  0.000000000000000E+00              /* K =  1: 35 */
(PID.TID 0000.0001)     ;
(PID.TID 0000.0001) PTRACERS_EvPrRn =/* tracer conc. in Evap. & Rain */
(PID.TID 0000.0001)                 1.234567000000000E+05
(PID.TID 0000.0001)     ;
(PID.TID 0000.0001)  -----------------------------------
(PID.TID 0000.0001)  tracer number :   60
(PID.TID 0000.0001) PTRACERS_names = /* Tracer short name */
(PID.TID 0000.0001)               'BIO_4_007'
(PID.TID 0000.0001)     ;
(PID.TID 0000.0001) PTRACERS_long_names = /* Tracer long name */
(PID.TID 0000.0001)               ''
(PID.TID 0000.0001)     ;
(PID.TID 0000.0001) PTRACERS_ioLabel = /* tracer IO Label */
(PID.TID 0000.0001)               '60'
(PID.TID 0000.0001)     ;
(PID.TID 0000.0001) PTRACERS_advScheme = /* Advection Scheme */
(PID.TID 0000.0001)                      33
(PID.TID 0000.0001)     ;
(PID.TID 0000.0001) PTRACERS_SOM_Advection = /* tracer uses SOM advection scheme */
(PID.TID 0000.0001)                   F
(PID.TID 0000.0001)     ;
(PID.TID 0000.0001) PTRACERS_ImplVertAdv = /* implicit vert. advection flag */
(PID.TID 0000.0001)                   F
(PID.TID 0000.0001)     ;
(PID.TID 0000.0001) PTRACERS_diffKh = /* Laplacian Diffusivity */
(PID.TID 0000.0001)                 0.000000000000000E+00
(PID.TID 0000.0001)     ;
(PID.TID 0000.0001) PTRACERS_diffK4 = /* Biharmonic Diffusivity */
(PID.TID 0000.0001)                 0.000000000000000E+00
(PID.TID 0000.0001)     ;
(PID.TID 0000.0001) PTRACERS_diffKrNr = /* Vertical Diffusivity */
(PID.TID 0000.0001)    35 @  1.000000000000000E-05              /* K =  1: 35 */
(PID.TID 0000.0001)     ;
(PID.TID 0000.0001) PTRACERS_useGMRedi = /* apply GM-Redi */
(PID.TID 0000.0001)                   F
(PID.TID 0000.0001)     ;
(PID.TID 0000.0001) PTRACERS_useDWNSLP = /* apply DOWN-SLOPE Flow */
(PID.TID 0000.0001)                   F
(PID.TID 0000.0001)     ;
(PID.TID 0000.0001) PTRACERS_useKPP = /* apply KPP scheme */
(PID.TID 0000.0001)                   T
(PID.TID 0000.0001)     ;
(PID.TID 0000.0001) PTRACERS_ref = /* Reference vertical profile */
(PID.TID 0000.0001)    35 @  0.000000000000000E+00              /* K =  1: 35 */
(PID.TID 0000.0001)     ;
(PID.TID 0000.0001) PTRACERS_EvPrRn =/* tracer conc. in Evap. & Rain */
(PID.TID 0000.0001)                 1.234567000000000E+05
(PID.TID 0000.0001)     ;
(PID.TID 0000.0001)  -----------------------------------
(PID.TID 0000.0001)  tracer number :   61
(PID.TID 0000.0001) PTRACERS_names = /* Tracer short name */
(PID.TID 0000.0001)               'BIO_4_008'
(PID.TID 0000.0001)     ;
(PID.TID 0000.0001) PTRACERS_long_names = /* Tracer long name */
(PID.TID 0000.0001)               ''
(PID.TID 0000.0001)     ;
(PID.TID 0000.0001) PTRACERS_ioLabel = /* tracer IO Label */
(PID.TID 0000.0001)               '61'
(PID.TID 0000.0001)     ;
(PID.TID 0000.0001) PTRACERS_advScheme = /* Advection Scheme */
(PID.TID 0000.0001)                      33
(PID.TID 0000.0001)     ;
(PID.TID 0000.0001) PTRACERS_SOM_Advection = /* tracer uses SOM advection scheme */
(PID.TID 0000.0001)                   F
(PID.TID 0000.0001)     ;
(PID.TID 0000.0001) PTRACERS_ImplVertAdv = /* implicit vert. advection flag */
(PID.TID 0000.0001)                   F
(PID.TID 0000.0001)     ;
(PID.TID 0000.0001) PTRACERS_diffKh = /* Laplacian Diffusivity */
(PID.TID 0000.0001)                 0.000000000000000E+00
(PID.TID 0000.0001)     ;
(PID.TID 0000.0001) PTRACERS_diffK4 = /* Biharmonic Diffusivity */
(PID.TID 0000.0001)                 0.000000000000000E+00
(PID.TID 0000.0001)     ;
(PID.TID 0000.0001) PTRACERS_diffKrNr = /* Vertical Diffusivity */
(PID.TID 0000.0001)    35 @  1.000000000000000E-05              /* K =  1: 35 */
(PID.TID 0000.0001)     ;
(PID.TID 0000.0001) PTRACERS_useGMRedi = /* apply GM-Redi */
(PID.TID 0000.0001)                   F
(PID.TID 0000.0001)     ;
(PID.TID 0000.0001) PTRACERS_useDWNSLP = /* apply DOWN-SLOPE Flow */
(PID.TID 0000.0001)                   F
(PID.TID 0000.0001)     ;
(PID.TID 0000.0001) PTRACERS_useKPP = /* apply KPP scheme */
(PID.TID 0000.0001)                   T
(PID.TID 0000.0001)     ;
(PID.TID 0000.0001) PTRACERS_ref = /* Reference vertical profile */
(PID.TID 0000.0001)    35 @  0.000000000000000E+00              /* K =  1: 35 */
(PID.TID 0000.0001)     ;
(PID.TID 0000.0001) PTRACERS_EvPrRn =/* tracer conc. in Evap. & Rain */
(PID.TID 0000.0001)                 1.234567000000000E+05
(PID.TID 0000.0001)     ;
(PID.TID 0000.0001)  -----------------------------------
(PID.TID 0000.0001)  tracer number :   62
(PID.TID 0000.0001) PTRACERS_names = /* Tracer short name */
(PID.TID 0000.0001)               'BIO_4_009'
(PID.TID 0000.0001)     ;
(PID.TID 0000.0001) PTRACERS_long_names = /* Tracer long name */
(PID.TID 0000.0001)               ''
(PID.TID 0000.0001)     ;
(PID.TID 0000.0001) PTRACERS_ioLabel = /* tracer IO Label */
(PID.TID 0000.0001)               '62'
(PID.TID 0000.0001)     ;
(PID.TID 0000.0001) PTRACERS_advScheme = /* Advection Scheme */
(PID.TID 0000.0001)                      33
(PID.TID 0000.0001)     ;
(PID.TID 0000.0001) PTRACERS_SOM_Advection = /* tracer uses SOM advection scheme */
(PID.TID 0000.0001)                   F
(PID.TID 0000.0001)     ;
(PID.TID 0000.0001) PTRACERS_ImplVertAdv = /* implicit vert. advection flag */
(PID.TID 0000.0001)                   F
(PID.TID 0000.0001)     ;
(PID.TID 0000.0001) PTRACERS_diffKh = /* Laplacian Diffusivity */
(PID.TID 0000.0001)                 0.000000000000000E+00
(PID.TID 0000.0001)     ;
(PID.TID 0000.0001) PTRACERS_diffK4 = /* Biharmonic Diffusivity */
(PID.TID 0000.0001)                 0.000000000000000E+00
(PID.TID 0000.0001)     ;
(PID.TID 0000.0001) PTRACERS_diffKrNr = /* Vertical Diffusivity */
(PID.TID 0000.0001)    35 @  1.000000000000000E-05              /* K =  1: 35 */
(PID.TID 0000.0001)     ;
(PID.TID 0000.0001) PTRACERS_useGMRedi = /* apply GM-Redi */
(PID.TID 0000.0001)                   F
(PID.TID 0000.0001)     ;
(PID.TID 0000.0001) PTRACERS_useDWNSLP = /* apply DOWN-SLOPE Flow */
(PID.TID 0000.0001)                   F
(PID.TID 0000.0001)     ;
(PID.TID 0000.0001) PTRACERS_useKPP = /* apply KPP scheme */
(PID.TID 0000.0001)                   T
(PID.TID 0000.0001)     ;
(PID.TID 0000.0001) PTRACERS_ref = /* Reference vertical profile */
(PID.TID 0000.0001)    35 @  0.000000000000000E+00              /* K =  1: 35 */
(PID.TID 0000.0001)     ;
(PID.TID 0000.0001) PTRACERS_EvPrRn =/* tracer conc. in Evap. & Rain */
(PID.TID 0000.0001)                 1.234567000000000E+05
(PID.TID 0000.0001)     ;
(PID.TID 0000.0001)  -----------------------------------
(PID.TID 0000.0001)  tracer number :   63
(PID.TID 0000.0001) PTRACERS_names = /* Tracer short name */
(PID.TID 0000.0001)               'BIO_4_010'
(PID.TID 0000.0001)     ;
(PID.TID 0000.0001) PTRACERS_long_names = /* Tracer long name */
(PID.TID 0000.0001)               ''
(PID.TID 0000.0001)     ;
(PID.TID 0000.0001) PTRACERS_ioLabel = /* tracer IO Label */
(PID.TID 0000.0001)               '63'
(PID.TID 0000.0001)     ;
(PID.TID 0000.0001) PTRACERS_advScheme = /* Advection Scheme */
(PID.TID 0000.0001)                      33
(PID.TID 0000.0001)     ;
(PID.TID 0000.0001) PTRACERS_SOM_Advection = /* tracer uses SOM advection scheme */
(PID.TID 0000.0001)                   F
(PID.TID 0000.0001)     ;
(PID.TID 0000.0001) PTRACERS_ImplVertAdv = /* implicit vert. advection flag */
(PID.TID 0000.0001)                   F
(PID.TID 0000.0001)     ;
(PID.TID 0000.0001) PTRACERS_diffKh = /* Laplacian Diffusivity */
(PID.TID 0000.0001)                 0.000000000000000E+00
(PID.TID 0000.0001)     ;
(PID.TID 0000.0001) PTRACERS_diffK4 = /* Biharmonic Diffusivity */
(PID.TID 0000.0001)                 0.000000000000000E+00
(PID.TID 0000.0001)     ;
(PID.TID 0000.0001) PTRACERS_diffKrNr = /* Vertical Diffusivity */
(PID.TID 0000.0001)    35 @  1.000000000000000E-05              /* K =  1: 35 */
(PID.TID 0000.0001)     ;
(PID.TID 0000.0001) PTRACERS_useGMRedi = /* apply GM-Redi */
(PID.TID 0000.0001)                   F
(PID.TID 0000.0001)     ;
(PID.TID 0000.0001) PTRACERS_useDWNSLP = /* apply DOWN-SLOPE Flow */
(PID.TID 0000.0001)                   F
(PID.TID 0000.0001)     ;
(PID.TID 0000.0001) PTRACERS_useKPP = /* apply KPP scheme */
(PID.TID 0000.0001)                   T
(PID.TID 0000.0001)     ;
(PID.TID 0000.0001) PTRACERS_ref = /* Reference vertical profile */
(PID.TID 0000.0001)    35 @  0.000000000000000E+00              /* K =  1: 35 */
(PID.TID 0000.0001)     ;
(PID.TID 0000.0001) PTRACERS_EvPrRn =/* tracer conc. in Evap. & Rain */
(PID.TID 0000.0001)                 1.234567000000000E+05
(PID.TID 0000.0001)     ;
(PID.TID 0000.0001)  -----------------------------------
(PID.TID 0000.0001)  tracer number :   64
(PID.TID 0000.0001) PTRACERS_names = /* Tracer short name */
(PID.TID 0000.0001)               'BIO_4_011'
(PID.TID 0000.0001)     ;
(PID.TID 0000.0001) PTRACERS_long_names = /* Tracer long name */
(PID.TID 0000.0001)               ''
(PID.TID 0000.0001)     ;
(PID.TID 0000.0001) PTRACERS_ioLabel = /* tracer IO Label */
(PID.TID 0000.0001)               '64'
(PID.TID 0000.0001)     ;
(PID.TID 0000.0001) PTRACERS_advScheme = /* Advection Scheme */
(PID.TID 0000.0001)                      33
(PID.TID 0000.0001)     ;
(PID.TID 0000.0001) PTRACERS_SOM_Advection = /* tracer uses SOM advection scheme */
(PID.TID 0000.0001)                   F
(PID.TID 0000.0001)     ;
(PID.TID 0000.0001) PTRACERS_ImplVertAdv = /* implicit vert. advection flag */
(PID.TID 0000.0001)                   F
(PID.TID 0000.0001)     ;
(PID.TID 0000.0001) PTRACERS_diffKh = /* Laplacian Diffusivity */
(PID.TID 0000.0001)                 0.000000000000000E+00
(PID.TID 0000.0001)     ;
(PID.TID 0000.0001) PTRACERS_diffK4 = /* Biharmonic Diffusivity */
(PID.TID 0000.0001)                 0.000000000000000E+00
(PID.TID 0000.0001)     ;
(PID.TID 0000.0001) PTRACERS_diffKrNr = /* Vertical Diffusivity */
(PID.TID 0000.0001)    35 @  1.000000000000000E-05              /* K =  1: 35 */
(PID.TID 0000.0001)     ;
(PID.TID 0000.0001) PTRACERS_useGMRedi = /* apply GM-Redi */
(PID.TID 0000.0001)                   F
(PID.TID 0000.0001)     ;
(PID.TID 0000.0001) PTRACERS_useDWNSLP = /* apply DOWN-SLOPE Flow */
(PID.TID 0000.0001)                   F
(PID.TID 0000.0001)     ;
(PID.TID 0000.0001) PTRACERS_useKPP = /* apply KPP scheme */
(PID.TID 0000.0001)                   T
(PID.TID 0000.0001)     ;
(PID.TID 0000.0001) PTRACERS_ref = /* Reference vertical profile */
(PID.TID 0000.0001)    35 @  0.000000000000000E+00              /* K =  1: 35 */
(PID.TID 0000.0001)     ;
(PID.TID 0000.0001) PTRACERS_EvPrRn =/* tracer conc. in Evap. & Rain */
(PID.TID 0000.0001)                 1.234567000000000E+05
(PID.TID 0000.0001)     ;
(PID.TID 0000.0001)  -----------------------------------
(PID.TID 0000.0001)  tracer number :   65
(PID.TID 0000.0001) PTRACERS_names = /* Tracer short name */
(PID.TID 0000.0001)               'BIO_4_012'
(PID.TID 0000.0001)     ;
(PID.TID 0000.0001) PTRACERS_long_names = /* Tracer long name */
(PID.TID 0000.0001)               ''
(PID.TID 0000.0001)     ;
(PID.TID 0000.0001) PTRACERS_ioLabel = /* tracer IO Label */
(PID.TID 0000.0001)               '65'
(PID.TID 0000.0001)     ;
(PID.TID 0000.0001) PTRACERS_advScheme = /* Advection Scheme */
(PID.TID 0000.0001)                      33
(PID.TID 0000.0001)     ;
(PID.TID 0000.0001) PTRACERS_SOM_Advection = /* tracer uses SOM advection scheme */
(PID.TID 0000.0001)                   F
(PID.TID 0000.0001)     ;
(PID.TID 0000.0001) PTRACERS_ImplVertAdv = /* implicit vert. advection flag */
(PID.TID 0000.0001)                   F
(PID.TID 0000.0001)     ;
(PID.TID 0000.0001) PTRACERS_diffKh = /* Laplacian Diffusivity */
(PID.TID 0000.0001)                 0.000000000000000E+00
(PID.TID 0000.0001)     ;
(PID.TID 0000.0001) PTRACERS_diffK4 = /* Biharmonic Diffusivity */
(PID.TID 0000.0001)                 0.000000000000000E+00
(PID.TID 0000.0001)     ;
(PID.TID 0000.0001) PTRACERS_diffKrNr = /* Vertical Diffusivity */
(PID.TID 0000.0001)    35 @  1.000000000000000E-05              /* K =  1: 35 */
(PID.TID 0000.0001)     ;
(PID.TID 0000.0001) PTRACERS_useGMRedi = /* apply GM-Redi */
(PID.TID 0000.0001)                   F
(PID.TID 0000.0001)     ;
(PID.TID 0000.0001) PTRACERS_useDWNSLP = /* apply DOWN-SLOPE Flow */
(PID.TID 0000.0001)                   F
(PID.TID 0000.0001)     ;
(PID.TID 0000.0001) PTRACERS_useKPP = /* apply KPP scheme */
(PID.TID 0000.0001)                   T
(PID.TID 0000.0001)     ;
(PID.TID 0000.0001) PTRACERS_ref = /* Reference vertical profile */
(PID.TID 0000.0001)    35 @  0.000000000000000E+00              /* K =  1: 35 */
(PID.TID 0000.0001)     ;
(PID.TID 0000.0001) PTRACERS_EvPrRn =/* tracer conc. in Evap. & Rain */
(PID.TID 0000.0001)                 1.234567000000000E+05
(PID.TID 0000.0001)     ;
(PID.TID 0000.0001)  -----------------------------------
(PID.TID 0000.0001)  tracer number :   66
(PID.TID 0000.0001) PTRACERS_names = /* Tracer short name */
(PID.TID 0000.0001)               'BIO_4_013'
(PID.TID 0000.0001)     ;
(PID.TID 0000.0001) PTRACERS_long_names = /* Tracer long name */
(PID.TID 0000.0001)               ''
(PID.TID 0000.0001)     ;
(PID.TID 0000.0001) PTRACERS_ioLabel = /* tracer IO Label */
(PID.TID 0000.0001)               '66'
(PID.TID 0000.0001)     ;
(PID.TID 0000.0001) PTRACERS_advScheme = /* Advection Scheme */
(PID.TID 0000.0001)                      33
(PID.TID 0000.0001)     ;
(PID.TID 0000.0001) PTRACERS_SOM_Advection = /* tracer uses SOM advection scheme */
(PID.TID 0000.0001)                   F
(PID.TID 0000.0001)     ;
(PID.TID 0000.0001) PTRACERS_ImplVertAdv = /* implicit vert. advection flag */
(PID.TID 0000.0001)                   F
(PID.TID 0000.0001)     ;
(PID.TID 0000.0001) PTRACERS_diffKh = /* Laplacian Diffusivity */
(PID.TID 0000.0001)                 0.000000000000000E+00
(PID.TID 0000.0001)     ;
(PID.TID 0000.0001) PTRACERS_diffK4 = /* Biharmonic Diffusivity */
(PID.TID 0000.0001)                 0.000000000000000E+00
(PID.TID 0000.0001)     ;
(PID.TID 0000.0001) PTRACERS_diffKrNr = /* Vertical Diffusivity */
(PID.TID 0000.0001)    35 @  1.000000000000000E-05              /* K =  1: 35 */
(PID.TID 0000.0001)     ;
(PID.TID 0000.0001) PTRACERS_useGMRedi = /* apply GM-Redi */
(PID.TID 0000.0001)                   F
(PID.TID 0000.0001)     ;
(PID.TID 0000.0001) PTRACERS_useDWNSLP = /* apply DOWN-SLOPE Flow */
(PID.TID 0000.0001)                   F
(PID.TID 0000.0001)     ;
(PID.TID 0000.0001) PTRACERS_useKPP = /* apply KPP scheme */
(PID.TID 0000.0001)                   T
(PID.TID 0000.0001)     ;
(PID.TID 0000.0001) PTRACERS_ref = /* Reference vertical profile */
(PID.TID 0000.0001)    35 @  0.000000000000000E+00              /* K =  1: 35 */
(PID.TID 0000.0001)     ;
(PID.TID 0000.0001) PTRACERS_EvPrRn =/* tracer conc. in Evap. & Rain */
(PID.TID 0000.0001)                 1.234567000000000E+05
(PID.TID 0000.0001)     ;
(PID.TID 0000.0001)  -----------------------------------
(PID.TID 0000.0001)  tracer number :   67
(PID.TID 0000.0001) PTRACERS_names = /* Tracer short name */
(PID.TID 0000.0001)               'BIO_4_014'
(PID.TID 0000.0001)     ;
(PID.TID 0000.0001) PTRACERS_long_names = /* Tracer long name */
(PID.TID 0000.0001)               ''
(PID.TID 0000.0001)     ;
(PID.TID 0000.0001) PTRACERS_ioLabel = /* tracer IO Label */
(PID.TID 0000.0001)               '67'
(PID.TID 0000.0001)     ;
(PID.TID 0000.0001) PTRACERS_advScheme = /* Advection Scheme */
(PID.TID 0000.0001)                      33
(PID.TID 0000.0001)     ;
(PID.TID 0000.0001) PTRACERS_SOM_Advection = /* tracer uses SOM advection scheme */
(PID.TID 0000.0001)                   F
(PID.TID 0000.0001)     ;
(PID.TID 0000.0001) PTRACERS_ImplVertAdv = /* implicit vert. advection flag */
(PID.TID 0000.0001)                   F
(PID.TID 0000.0001)     ;
(PID.TID 0000.0001) PTRACERS_diffKh = /* Laplacian Diffusivity */
(PID.TID 0000.0001)                 0.000000000000000E+00
(PID.TID 0000.0001)     ;
(PID.TID 0000.0001) PTRACERS_diffK4 = /* Biharmonic Diffusivity */
(PID.TID 0000.0001)                 0.000000000000000E+00
(PID.TID 0000.0001)     ;
(PID.TID 0000.0001) PTRACERS_diffKrNr = /* Vertical Diffusivity */
(PID.TID 0000.0001)    35 @  1.000000000000000E-05              /* K =  1: 35 */
(PID.TID 0000.0001)     ;
(PID.TID 0000.0001) PTRACERS_useGMRedi = /* apply GM-Redi */
(PID.TID 0000.0001)                   F
(PID.TID 0000.0001)     ;
(PID.TID 0000.0001) PTRACERS_useDWNSLP = /* apply DOWN-SLOPE Flow */
(PID.TID 0000.0001)                   F
(PID.TID 0000.0001)     ;
(PID.TID 0000.0001) PTRACERS_useKPP = /* apply KPP scheme */
(PID.TID 0000.0001)                   T
(PID.TID 0000.0001)     ;
(PID.TID 0000.0001) PTRACERS_ref = /* Reference vertical profile */
(PID.TID 0000.0001)    35 @  0.000000000000000E+00              /* K =  1: 35 */
(PID.TID 0000.0001)     ;
(PID.TID 0000.0001) PTRACERS_EvPrRn =/* tracer conc. in Evap. & Rain */
(PID.TID 0000.0001)                 1.234567000000000E+05
(PID.TID 0000.0001)     ;
(PID.TID 0000.0001)  -----------------------------------
(PID.TID 0000.0001)  tracer number :   68
(PID.TID 0000.0001) PTRACERS_names = /* Tracer short name */
(PID.TID 0000.0001)               'BIO_4_015'
(PID.TID 0000.0001)     ;
(PID.TID 0000.0001) PTRACERS_long_names = /* Tracer long name */
(PID.TID 0000.0001)               ''
(PID.TID 0000.0001)     ;
(PID.TID 0000.0001) PTRACERS_ioLabel = /* tracer IO Label */
(PID.TID 0000.0001)               '68'
(PID.TID 0000.0001)     ;
(PID.TID 0000.0001) PTRACERS_advScheme = /* Advection Scheme */
(PID.TID 0000.0001)                      33
(PID.TID 0000.0001)     ;
(PID.TID 0000.0001) PTRACERS_SOM_Advection = /* tracer uses SOM advection scheme */
(PID.TID 0000.0001)                   F
(PID.TID 0000.0001)     ;
(PID.TID 0000.0001) PTRACERS_ImplVertAdv = /* implicit vert. advection flag */
(PID.TID 0000.0001)                   F
(PID.TID 0000.0001)     ;
(PID.TID 0000.0001) PTRACERS_diffKh = /* Laplacian Diffusivity */
(PID.TID 0000.0001)                 0.000000000000000E+00
(PID.TID 0000.0001)     ;
(PID.TID 0000.0001) PTRACERS_diffK4 = /* Biharmonic Diffusivity */
(PID.TID 0000.0001)                 0.000000000000000E+00
(PID.TID 0000.0001)     ;
(PID.TID 0000.0001) PTRACERS_diffKrNr = /* Vertical Diffusivity */
(PID.TID 0000.0001)    35 @  1.000000000000000E-05              /* K =  1: 35 */
(PID.TID 0000.0001)     ;
(PID.TID 0000.0001) PTRACERS_useGMRedi = /* apply GM-Redi */
(PID.TID 0000.0001)                   F
(PID.TID 0000.0001)     ;
(PID.TID 0000.0001) PTRACERS_useDWNSLP = /* apply DOWN-SLOPE Flow */
(PID.TID 0000.0001)                   F
(PID.TID 0000.0001)     ;
(PID.TID 0000.0001) PTRACERS_useKPP = /* apply KPP scheme */
(PID.TID 0000.0001)                   T
(PID.TID 0000.0001)     ;
(PID.TID 0000.0001) PTRACERS_ref = /* Reference vertical profile */
(PID.TID 0000.0001)    35 @  0.000000000000000E+00              /* K =  1: 35 */
(PID.TID 0000.0001)     ;
(PID.TID 0000.0001) PTRACERS_EvPrRn =/* tracer conc. in Evap. & Rain */
(PID.TID 0000.0001)                 1.234567000000000E+05
(PID.TID 0000.0001)     ;
(PID.TID 0000.0001)  -----------------------------------
(PID.TID 0000.0001)  tracer number :   69
(PID.TID 0000.0001) PTRACERS_names = /* Tracer short name */
(PID.TID 0000.0001)               'OM_1_1'
(PID.TID 0000.0001)     ;
(PID.TID 0000.0001) PTRACERS_long_names = /* Tracer long name */
(PID.TID 0000.0001)               ''
(PID.TID 0000.0001)     ;
(PID.TID 0000.0001) PTRACERS_ioLabel = /* tracer IO Label */
(PID.TID 0000.0001)               '69'
(PID.TID 0000.0001)     ;
(PID.TID 0000.0001) PTRACERS_advScheme = /* Advection Scheme */
(PID.TID 0000.0001)                      33
(PID.TID 0000.0001)     ;
(PID.TID 0000.0001) PTRACERS_SOM_Advection = /* tracer uses SOM advection scheme */
(PID.TID 0000.0001)                   F
(PID.TID 0000.0001)     ;
(PID.TID 0000.0001) PTRACERS_ImplVertAdv = /* implicit vert. advection flag */
(PID.TID 0000.0001)                   F
(PID.TID 0000.0001)     ;
(PID.TID 0000.0001) PTRACERS_diffKh = /* Laplacian Diffusivity */
(PID.TID 0000.0001)                 0.000000000000000E+00
(PID.TID 0000.0001)     ;
(PID.TID 0000.0001) PTRACERS_diffK4 = /* Biharmonic Diffusivity */
(PID.TID 0000.0001)                 0.000000000000000E+00
(PID.TID 0000.0001)     ;
(PID.TID 0000.0001) PTRACERS_diffKrNr = /* Vertical Diffusivity */
(PID.TID 0000.0001)    35 @  1.000000000000000E-05              /* K =  1: 35 */
(PID.TID 0000.0001)     ;
(PID.TID 0000.0001) PTRACERS_useGMRedi = /* apply GM-Redi */
(PID.TID 0000.0001)                   F
(PID.TID 0000.0001)     ;
(PID.TID 0000.0001) PTRACERS_useDWNSLP = /* apply DOWN-SLOPE Flow */
(PID.TID 0000.0001)                   F
(PID.TID 0000.0001)     ;
(PID.TID 0000.0001) PTRACERS_useKPP = /* apply KPP scheme */
(PID.TID 0000.0001)                   T
(PID.TID 0000.0001)     ;
(PID.TID 0000.0001) PTRACERS_ref = /* Reference vertical profile */
(PID.TID 0000.0001)    35 @  0.000000000000000E+00              /* K =  1: 35 */
(PID.TID 0000.0001)     ;
(PID.TID 0000.0001) PTRACERS_EvPrRn =/* tracer conc. in Evap. & Rain */
(PID.TID 0000.0001)                 1.234567000000000E+05
(PID.TID 0000.0001)     ;
(PID.TID 0000.0001)  -----------------------------------
(PID.TID 0000.0001)  tracer number :   70
(PID.TID 0000.0001) PTRACERS_names = /* Tracer short name */
(PID.TID 0000.0001)               'OM_1_2'
(PID.TID 0000.0001)     ;
(PID.TID 0000.0001) PTRACERS_long_names = /* Tracer long name */
(PID.TID 0000.0001)               ''
(PID.TID 0000.0001)     ;
(PID.TID 0000.0001) PTRACERS_ioLabel = /* tracer IO Label */
(PID.TID 0000.0001)               '70'
(PID.TID 0000.0001)     ;
(PID.TID 0000.0001) PTRACERS_advScheme = /* Advection Scheme */
(PID.TID 0000.0001)                      33
(PID.TID 0000.0001)     ;
(PID.TID 0000.0001) PTRACERS_SOM_Advection = /* tracer uses SOM advection scheme */
(PID.TID 0000.0001)                   F
(PID.TID 0000.0001)     ;
(PID.TID 0000.0001) PTRACERS_ImplVertAdv = /* implicit vert. advection flag */
(PID.TID 0000.0001)                   F
(PID.TID 0000.0001)     ;
(PID.TID 0000.0001) PTRACERS_diffKh = /* Laplacian Diffusivity */
(PID.TID 0000.0001)                 0.000000000000000E+00
(PID.TID 0000.0001)     ;
(PID.TID 0000.0001) PTRACERS_diffK4 = /* Biharmonic Diffusivity */
(PID.TID 0000.0001)                 0.000000000000000E+00
(PID.TID 0000.0001)     ;
(PID.TID 0000.0001) PTRACERS_diffKrNr = /* Vertical Diffusivity */
(PID.TID 0000.0001)    35 @  1.000000000000000E-05              /* K =  1: 35 */
(PID.TID 0000.0001)     ;
(PID.TID 0000.0001) PTRACERS_useGMRedi = /* apply GM-Redi */
(PID.TID 0000.0001)                   F
(PID.TID 0000.0001)     ;
(PID.TID 0000.0001) PTRACERS_useDWNSLP = /* apply DOWN-SLOPE Flow */
(PID.TID 0000.0001)                   F
(PID.TID 0000.0001)     ;
(PID.TID 0000.0001) PTRACERS_useKPP = /* apply KPP scheme */
(PID.TID 0000.0001)                   T
(PID.TID 0000.0001)     ;
(PID.TID 0000.0001) PTRACERS_ref = /* Reference vertical profile */
(PID.TID 0000.0001)    35 @  0.000000000000000E+00              /* K =  1: 35 */
(PID.TID 0000.0001)     ;
(PID.TID 0000.0001) PTRACERS_EvPrRn =/* tracer conc. in Evap. & Rain */
(PID.TID 0000.0001)                 1.234567000000000E+05
(PID.TID 0000.0001)     ;
(PID.TID 0000.0001)  -----------------------------------
(PID.TID 0000.0001)  tracer number :   71
(PID.TID 0000.0001) PTRACERS_names = /* Tracer short name */
(PID.TID 0000.0001)               'OM_2_1'
(PID.TID 0000.0001)     ;
(PID.TID 0000.0001) PTRACERS_long_names = /* Tracer long name */
(PID.TID 0000.0001)               ''
(PID.TID 0000.0001)     ;
(PID.TID 0000.0001) PTRACERS_ioLabel = /* tracer IO Label */
(PID.TID 0000.0001)               '71'
(PID.TID 0000.0001)     ;
(PID.TID 0000.0001) PTRACERS_advScheme = /* Advection Scheme */
(PID.TID 0000.0001)                      33
(PID.TID 0000.0001)     ;
(PID.TID 0000.0001) PTRACERS_SOM_Advection = /* tracer uses SOM advection scheme */
(PID.TID 0000.0001)                   F
(PID.TID 0000.0001)     ;
(PID.TID 0000.0001) PTRACERS_ImplVertAdv = /* implicit vert. advection flag */
(PID.TID 0000.0001)                   F
(PID.TID 0000.0001)     ;
(PID.TID 0000.0001) PTRACERS_diffKh = /* Laplacian Diffusivity */
(PID.TID 0000.0001)                 0.000000000000000E+00
(PID.TID 0000.0001)     ;
(PID.TID 0000.0001) PTRACERS_diffK4 = /* Biharmonic Diffusivity */
(PID.TID 0000.0001)                 0.000000000000000E+00
(PID.TID 0000.0001)     ;
(PID.TID 0000.0001) PTRACERS_diffKrNr = /* Vertical Diffusivity */
(PID.TID 0000.0001)    35 @  1.000000000000000E-05              /* K =  1: 35 */
(PID.TID 0000.0001)     ;
(PID.TID 0000.0001) PTRACERS_useGMRedi = /* apply GM-Redi */
(PID.TID 0000.0001)                   F
(PID.TID 0000.0001)     ;
(PID.TID 0000.0001) PTRACERS_useDWNSLP = /* apply DOWN-SLOPE Flow */
(PID.TID 0000.0001)                   F
(PID.TID 0000.0001)     ;
(PID.TID 0000.0001) PTRACERS_useKPP = /* apply KPP scheme */
(PID.TID 0000.0001)                   T
(PID.TID 0000.0001)     ;
(PID.TID 0000.0001) PTRACERS_ref = /* Reference vertical profile */
(PID.TID 0000.0001)    35 @  0.000000000000000E+00              /* K =  1: 35 */
(PID.TID 0000.0001)     ;
(PID.TID 0000.0001) PTRACERS_EvPrRn =/* tracer conc. in Evap. & Rain */
(PID.TID 0000.0001)                 1.234567000000000E+05
(PID.TID 0000.0001)     ;
(PID.TID 0000.0001)  -----------------------------------
(PID.TID 0000.0001)  tracer number :   72
(PID.TID 0000.0001) PTRACERS_names = /* Tracer short name */
(PID.TID 0000.0001)               'OM_2_2'
(PID.TID 0000.0001)     ;
(PID.TID 0000.0001) PTRACERS_long_names = /* Tracer long name */
(PID.TID 0000.0001)               ''
(PID.TID 0000.0001)     ;
(PID.TID 0000.0001) PTRACERS_ioLabel = /* tracer IO Label */
(PID.TID 0000.0001)               '72'
(PID.TID 0000.0001)     ;
(PID.TID 0000.0001) PTRACERS_advScheme = /* Advection Scheme */
(PID.TID 0000.0001)                      33
(PID.TID 0000.0001)     ;
(PID.TID 0000.0001) PTRACERS_SOM_Advection = /* tracer uses SOM advection scheme */
(PID.TID 0000.0001)                   F
(PID.TID 0000.0001)     ;
(PID.TID 0000.0001) PTRACERS_ImplVertAdv = /* implicit vert. advection flag */
(PID.TID 0000.0001)                   F
(PID.TID 0000.0001)     ;
(PID.TID 0000.0001) PTRACERS_diffKh = /* Laplacian Diffusivity */
(PID.TID 0000.0001)                 0.000000000000000E+00
(PID.TID 0000.0001)     ;
(PID.TID 0000.0001) PTRACERS_diffK4 = /* Biharmonic Diffusivity */
(PID.TID 0000.0001)                 0.000000000000000E+00
(PID.TID 0000.0001)     ;
(PID.TID 0000.0001) PTRACERS_diffKrNr = /* Vertical Diffusivity */
(PID.TID 0000.0001)    35 @  1.000000000000000E-05              /* K =  1: 35 */
(PID.TID 0000.0001)     ;
(PID.TID 0000.0001) PTRACERS_useGMRedi = /* apply GM-Redi */
(PID.TID 0000.0001)                   F
(PID.TID 0000.0001)     ;
(PID.TID 0000.0001) PTRACERS_useDWNSLP = /* apply DOWN-SLOPE Flow */
(PID.TID 0000.0001)                   F
(PID.TID 0000.0001)     ;
(PID.TID 0000.0001) PTRACERS_useKPP = /* apply KPP scheme */
(PID.TID 0000.0001)                   T
(PID.TID 0000.0001)     ;
(PID.TID 0000.0001) PTRACERS_ref = /* Reference vertical profile */
(PID.TID 0000.0001)    35 @  0.000000000000000E+00              /* K =  1: 35 */
(PID.TID 0000.0001)     ;
(PID.TID 0000.0001) PTRACERS_EvPrRn =/* tracer conc. in Evap. & Rain */
(PID.TID 0000.0001)                 1.234567000000000E+05
(PID.TID 0000.0001)     ;
(PID.TID 0000.0001)  -----------------------------------
(PID.TID 0000.0001)  tracer number :   73
(PID.TID 0000.0001) PTRACERS_names = /* Tracer short name */
(PID.TID 0000.0001)               'OM_3_1'
(PID.TID 0000.0001)     ;
(PID.TID 0000.0001) PTRACERS_long_names = /* Tracer long name */
(PID.TID 0000.0001)               ''
(PID.TID 0000.0001)     ;
(PID.TID 0000.0001) PTRACERS_ioLabel = /* tracer IO Label */
(PID.TID 0000.0001)               '73'
(PID.TID 0000.0001)     ;
(PID.TID 0000.0001) PTRACERS_advScheme = /* Advection Scheme */
(PID.TID 0000.0001)                      33
(PID.TID 0000.0001)     ;
(PID.TID 0000.0001) PTRACERS_SOM_Advection = /* tracer uses SOM advection scheme */
(PID.TID 0000.0001)                   F
(PID.TID 0000.0001)     ;
(PID.TID 0000.0001) PTRACERS_ImplVertAdv = /* implicit vert. advection flag */
(PID.TID 0000.0001)                   F
(PID.TID 0000.0001)     ;
(PID.TID 0000.0001) PTRACERS_diffKh = /* Laplacian Diffusivity */
(PID.TID 0000.0001)                 0.000000000000000E+00
(PID.TID 0000.0001)     ;
(PID.TID 0000.0001) PTRACERS_diffK4 = /* Biharmonic Diffusivity */
(PID.TID 0000.0001)                 0.000000000000000E+00
(PID.TID 0000.0001)     ;
(PID.TID 0000.0001) PTRACERS_diffKrNr = /* Vertical Diffusivity */
(PID.TID 0000.0001)    35 @  1.000000000000000E-05              /* K =  1: 35 */
(PID.TID 0000.0001)     ;
(PID.TID 0000.0001) PTRACERS_useGMRedi = /* apply GM-Redi */
(PID.TID 0000.0001)                   F
(PID.TID 0000.0001)     ;
(PID.TID 0000.0001) PTRACERS_useDWNSLP = /* apply DOWN-SLOPE Flow */
(PID.TID 0000.0001)                   F
(PID.TID 0000.0001)     ;
(PID.TID 0000.0001) PTRACERS_useKPP = /* apply KPP scheme */
(PID.TID 0000.0001)                   T
(PID.TID 0000.0001)     ;
(PID.TID 0000.0001) PTRACERS_ref = /* Reference vertical profile */
(PID.TID 0000.0001)    35 @  0.000000000000000E+00              /* K =  1: 35 */
(PID.TID 0000.0001)     ;
(PID.TID 0000.0001) PTRACERS_EvPrRn =/* tracer conc. in Evap. & Rain */
(PID.TID 0000.0001)                 1.234567000000000E+05
(PID.TID 0000.0001)     ;
(PID.TID 0000.0001)  -----------------------------------
(PID.TID 0000.0001)  tracer number :   74
(PID.TID 0000.0001) PTRACERS_names = /* Tracer short name */
(PID.TID 0000.0001)               'OM_3_2'
(PID.TID 0000.0001)     ;
(PID.TID 0000.0001) PTRACERS_long_names = /* Tracer long name */
(PID.TID 0000.0001)               ''
(PID.TID 0000.0001)     ;
(PID.TID 0000.0001) PTRACERS_ioLabel = /* tracer IO Label */
(PID.TID 0000.0001)               '74'
(PID.TID 0000.0001)     ;
(PID.TID 0000.0001) PTRACERS_advScheme = /* Advection Scheme */
(PID.TID 0000.0001)                      33
(PID.TID 0000.0001)     ;
(PID.TID 0000.0001) PTRACERS_SOM_Advection = /* tracer uses SOM advection scheme */
(PID.TID 0000.0001)                   F
(PID.TID 0000.0001)     ;
(PID.TID 0000.0001) PTRACERS_ImplVertAdv = /* implicit vert. advection flag */
(PID.TID 0000.0001)                   F
(PID.TID 0000.0001)     ;
(PID.TID 0000.0001) PTRACERS_diffKh = /* Laplacian Diffusivity */
(PID.TID 0000.0001)                 0.000000000000000E+00
(PID.TID 0000.0001)     ;
(PID.TID 0000.0001) PTRACERS_diffK4 = /* Biharmonic Diffusivity */
(PID.TID 0000.0001)                 0.000000000000000E+00
(PID.TID 0000.0001)     ;
(PID.TID 0000.0001) PTRACERS_diffKrNr = /* Vertical Diffusivity */
(PID.TID 0000.0001)    35 @  1.000000000000000E-05              /* K =  1: 35 */
(PID.TID 0000.0001)     ;
(PID.TID 0000.0001) PTRACERS_useGMRedi = /* apply GM-Redi */
(PID.TID 0000.0001)                   F
(PID.TID 0000.0001)     ;
(PID.TID 0000.0001) PTRACERS_useDWNSLP = /* apply DOWN-SLOPE Flow */
(PID.TID 0000.0001)                   F
(PID.TID 0000.0001)     ;
(PID.TID 0000.0001) PTRACERS_useKPP = /* apply KPP scheme */
(PID.TID 0000.0001)                   T
(PID.TID 0000.0001)     ;
(PID.TID 0000.0001) PTRACERS_ref = /* Reference vertical profile */
(PID.TID 0000.0001)    35 @  0.000000000000000E+00              /* K =  1: 35 */
(PID.TID 0000.0001)     ;
(PID.TID 0000.0001) PTRACERS_EvPrRn =/* tracer conc. in Evap. & Rain */
(PID.TID 0000.0001)                 1.234567000000000E+05
(PID.TID 0000.0001)     ;
(PID.TID 0000.0001)  -----------------------------------
(PID.TID 0000.0001) GCHEM_CHECK: #define ALLOW_GCHEM
(PID.TID 0000.0001) QUOTA_CHECK: #define ALLOW_DARWIN
(PID.TID 0000.0001) QUOTA_CHECK: iPtr darwin PTRACERS_names
(PID.TID 0000.0001) // =======================================================
(PID.TID 0000.0001) QUOTA_CHECK:    1 inoganic nutrient (   1)  - DIC
(PID.TID 0000.0001) QUOTA_CHECK:    2 inoganic nutrient (   2)  - NO3
(PID.TID 0000.0001) QUOTA_CHECK:    3 inoganic nutrient (   3)  - NO2
(PID.TID 0000.0001) QUOTA_CHECK:    4 inoganic nutrient (   4)  - NH4
(PID.TID 0000.0001) QUOTA_CHECK:    5 inoganic nutrient (   5)  - FeT
(PID.TID 0000.0001) // =======================================================
(PID.TID 0000.0001) QUOTA_CHECK:    6 biomass (1, 1)    - BIO_1_001
(PID.TID 0000.0001) QUOTA_CHECK:    7 biomass (1, 2)    - BIO_1_002
(PID.TID 0000.0001) QUOTA_CHECK:    8 biomass (1, 3)    - BIO_1_003
(PID.TID 0000.0001) QUOTA_CHECK:    9 biomass (1, 4)    - BIO_1_004
(PID.TID 0000.0001) QUOTA_CHECK:   10 biomass (1, 5)    - BIO_1_005
(PID.TID 0000.0001) QUOTA_CHECK:   11 biomass (1, 6)    - BIO_1_006
(PID.TID 0000.0001) QUOTA_CHECK:   12 biomass (1, 7)    - BIO_1_007
(PID.TID 0000.0001) QUOTA_CHECK:   13 biomass (1, 8)    - BIO_1_008
(PID.TID 0000.0001) QUOTA_CHECK:   14 biomass (1, 9)    - BIO_1_009
(PID.TID 0000.0001) QUOTA_CHECK:   15 biomass (1,10)    - BIO_1_010
(PID.TID 0000.0001) QUOTA_CHECK:   16 biomass (1,11)    - BIO_1_011
(PID.TID 0000.0001) QUOTA_CHECK:   17 biomass (1,12)    - BIO_1_012
(PID.TID 0000.0001) QUOTA_CHECK:   18 biomass (1,13)    - BIO_1_013
(PID.TID 0000.0001) QUOTA_CHECK:   19 biomass (1,14)    - BIO_1_014
(PID.TID 0000.0001) QUOTA_CHECK:   20 biomass (1,15)    - BIO_1_015
(PID.TID 0000.0001) QUOTA_CHECK:   21 biomass (1,16)    - BIO_1_016
(PID.TID 0000.0001) QUOTA_CHECK:   22 biomass (2, 1)    - BIO_2_001
(PID.TID 0000.0001) QUOTA_CHECK:   23 biomass (2, 2)    - BIO_2_002
(PID.TID 0000.0001) QUOTA_CHECK:   24 biomass (2, 3)    - BIO_2_003
(PID.TID 0000.0001) QUOTA_CHECK:   25 biomass (2, 4)    - BIO_2_004
(PID.TID 0000.0001) QUOTA_CHECK:   26 biomass (2, 5)    - BIO_2_005
(PID.TID 0000.0001) QUOTA_CHECK:   27 biomass (2, 6)    - BIO_2_006
(PID.TID 0000.0001) QUOTA_CHECK:   28 biomass (2, 7)    - BIO_2_007
(PID.TID 0000.0001) QUOTA_CHECK:   29 biomass (2, 8)    - BIO_2_008
(PID.TID 0000.0001) QUOTA_CHECK:   30 biomass (2, 9)    - BIO_2_009
(PID.TID 0000.0001) QUOTA_CHECK:   31 biomass (2,10)    - BIO_2_010
(PID.TID 0000.0001) QUOTA_CHECK:   32 biomass (2,11)    - BIO_2_011
(PID.TID 0000.0001) QUOTA_CHECK:   33 biomass (2,12)    - BIO_2_012
(PID.TID 0000.0001) QUOTA_CHECK:   34 biomass (2,13)    - BIO_2_013
(PID.TID 0000.0001) QUOTA_CHECK:   35 biomass (2,14)    - BIO_2_014
(PID.TID 0000.0001) QUOTA_CHECK:   36 biomass (2,15)    - BIO_2_015
(PID.TID 0000.0001) QUOTA_CHECK:   37 biomass (2,16)    - BIO_2_016
(PID.TID 0000.0001) QUOTA_CHECK:   38 biomass (3, 1)    - BIO_3_001
(PID.TID 0000.0001) QUOTA_CHECK:   39 biomass (3, 2)    - BIO_3_002
(PID.TID 0000.0001) QUOTA_CHECK:   40 biomass (3, 3)    - BIO_3_003
(PID.TID 0000.0001) QUOTA_CHECK:   41 biomass (3, 4)    - BIO_3_004
(PID.TID 0000.0001) QUOTA_CHECK:   42 biomass (3, 5)    - BIO_3_005
(PID.TID 0000.0001) QUOTA_CHECK:   43 biomass (3, 6)    - BIO_3_006
(PID.TID 0000.0001) QUOTA_CHECK:   44 biomass (3, 7)    - BIO_3_007
(PID.TID 0000.0001) QUOTA_CHECK:   45 biomass (3, 8)    - BIO_3_008
(PID.TID 0000.0001) QUOTA_CHECK:   46 biomass (3, 9)    - BIO_3_009
(PID.TID 0000.0001) QUOTA_CHECK:   47 biomass (3,10)    - BIO_3_010
(PID.TID 0000.0001) QUOTA_CHECK:   48 biomass (3,11)    - BIO_3_011
(PID.TID 0000.0001) QUOTA_CHECK:   49 biomass (3,12)    - BIO_3_012
(PID.TID 0000.0001) QUOTA_CHECK:   50 biomass (3,13)    - BIO_3_013
(PID.TID 0000.0001) QUOTA_CHECK:   51 biomass (3,14)    - BIO_3_014
(PID.TID 0000.0001) QUOTA_CHECK:   52 biomass (3,15)    - BIO_3_015
(PID.TID 0000.0001) QUOTA_CHECK:   53 biomass (3,16)    - BIO_3_016
(PID.TID 0000.0001) QUOTA_CHECK:   54 biomass (4, 1)    - BIO_4_001
(PID.TID 0000.0001) QUOTA_CHECK:   55 biomass (4, 2)    - BIO_4_002
(PID.TID 0000.0001) QUOTA_CHECK:   56 biomass (4, 3)    - BIO_4_003
(PID.TID 0000.0001) QUOTA_CHECK:   57 biomass (4, 4)    - BIO_4_004
(PID.TID 0000.0001) QUOTA_CHECK:   58 biomass (4, 5)    - BIO_4_005
(PID.TID 0000.0001) QUOTA_CHECK:   59 biomass (4, 6)    - BIO_4_006
(PID.TID 0000.0001) QUOTA_CHECK:   60 biomass (4, 7)    - BIO_4_007
(PID.TID 0000.0001) QUOTA_CHECK:   61 biomass (4, 8)    - BIO_4_008
(PID.TID 0000.0001) QUOTA_CHECK:   62 biomass (4, 9)    - BIO_4_009
(PID.TID 0000.0001) QUOTA_CHECK:   63 biomass (4,10)    - BIO_4_010
(PID.TID 0000.0001) QUOTA_CHECK:   64 biomass (4,11)    - BIO_4_011
(PID.TID 0000.0001) QUOTA_CHECK:   65 biomass (4,12)    - BIO_4_012
(PID.TID 0000.0001) QUOTA_CHECK:   66 biomass (4,13)    - BIO_4_013
(PID.TID 0000.0001) QUOTA_CHECK:   67 biomass (4,14)    - BIO_4_014
(PID.TID 0000.0001) QUOTA_CHECK:   68 biomass (4,15)    - BIO_4_015
(PID.TID 0000.0001) QUOTA_CHECK:   69 biomass (4,16)    - OM_1_1
(PID.TID 0000.0001) // =======================================================
(PID.TID 0000.0001) QUOTA_CHECK:   70 orgmat(1, 1)      - OM_1_2
(PID.TID 0000.0001) QUOTA_CHECK:   71 orgmat(1, 2)      - OM_2_1
(PID.TID 0000.0001) QUOTA_CHECK:   72 orgmat(2, 1)      - OM_2_2
(PID.TID 0000.0001) QUOTA_CHECK:   73 orgmat(2, 2)      - OM_3_1
(PID.TID 0000.0001) QUOTA_CHECK:   74 orgmat(3, 1)      - OM_3_2
(PID.TID 0000.0001) QUOTA_CHECK:   75 orgmat(3, 2)      -
(PID.TID 0000.0001) GAD_CHECK: #define ALLOW_GENERIC_ADVDIFF
(PID.TID 0000.0001) // =======================================================
(PID.TID 0000.0001) // Check Model config. (CONFIG_CHECK):
(PID.TID 0000.0001) // CONFIG_CHECK : Normal End
(PID.TID 0000.0001) // =======================================================
(PID.TID 0000.0001) 
(PID.TID 0000.0001)  MDS_READ_FIELD: opening global file: ../input/input/loc1_temp_janprof.bin
(PID.TID 0000.0001)  MDS_READ_FIELD: opening global file: ../input/input/salt_uniform.bin
(PID.TID 0000.0001) Start initial hydrostatic pressure computation
(PID.TID 0000.0001) Pressure is predetermined for buoyancyRelation OCEANIC
(PID.TID 0000.0001) 
(PID.TID 0000.0001)  MDS_READ_FIELD: opening global file: ../input/input/wind_u_mon.bin
(PID.TID 0000.0001)  MDS_READ_FIELD: opening global file: ../input/input/wind_v_mon.bin
(PID.TID 0000.0001)  MDS_READ_FIELD: opening global file: ../input/input/loc1_temp_monsurf.bin
(PID.TID 0000.0001)  MDS_READ_FIELD: opening global file: ../input/input/loc1_DIC_annprof.bin
(PID.TID 0000.0001)  MDS_READ_FIELD: opening global file: ../input/input/loc1_nitr_janprof.bin
(PID.TID 0000.0001)  MDS_READ_FIELD: opening global file: ../input/input/loc1_NO2_run83_janprof.bin
(PID.TID 0000.0001)  MDS_READ_FIELD: opening global file: ../input/input/loc1_NH4_run83_janprof.bin
(PID.TID 0000.0001)  MDS_READ_FIELD: opening global file: ../input/input/loc1_FeT_run83_janprof.bin
(PID.TID 0000.0001)  MDS_READ_FIELD: opening global file: ../input/input/loc1_C_biomass_janprof.bin
(PID.TID 0000.0001)  MDS_READ_FIELD: opening global file: ../input/input/loc1_C_biomass_janprof.bin
(PID.TID 0000.0001)  MDS_READ_FIELD: opening global file: ../input/input/loc1_C_biomass_janprof.bin
(PID.TID 0000.0001)  MDS_READ_FIELD: opening global file: ../input/input/loc1_C_biomass_janprof.bin
(PID.TID 0000.0001)  MDS_READ_FIELD: opening global file: ../input/input/loc1_C_biomass_janprof.bin
(PID.TID 0000.0001)  MDS_READ_FIELD: opening global file: ../input/input/loc1_C_biomass_janprof.bin
(PID.TID 0000.0001)  MDS_READ_FIELD: opening global file: ../input/input/loc1_C_biomass_janprof.bin
(PID.TID 0000.0001)  MDS_READ_FIELD: opening global file: ../input/input/loc1_C_biomass_janprof.bin
(PID.TID 0000.0001)  MDS_READ_FIELD: opening global file: ../input/input/loc1_C_biomass_janprof.bin
(PID.TID 0000.0001)  MDS_READ_FIELD: opening global file: ../input/input/loc1_C_biomass_janprof.bin
(PID.TID 0000.0001)  MDS_READ_FIELD: opening global file: ../input/input/loc1_C_biomass_janprof.bin
(PID.TID 0000.0001)  MDS_READ_FIELD: opening global file: ../input/input/loc1_C_biomass_janprof.bin
(PID.TID 0000.0001)  MDS_READ_FIELD: opening global file: ../input/input/loc1_C_biomass_janprof.bin
(PID.TID 0000.0001)  MDS_READ_FIELD: opening global file: ../input/input/loc1_C_biomass_janprof.bin
(PID.TID 0000.0001)  MDS_READ_FIELD: opening global file: ../input/input/loc1_C_biomass_janprof.bin
(PID.TID 0000.0001)  MDS_READ_FIELD: opening global file: ../input/input/loc1_C_biomass_janprof.bin
(PID.TID 0000.0001)  MDS_READ_FIELD: opening global file: ../input/input/loc1_N_biomass_janprof.bin
(PID.TID 0000.0001)  MDS_READ_FIELD: opening global file: ../input/input/loc1_N_biomass_janprof.bin
(PID.TID 0000.0001)  MDS_READ_FIELD: opening global file: ../input/input/loc1_N_biomass_janprof.bin
(PID.TID 0000.0001)  MDS_READ_FIELD: opening global file: ../input/input/loc1_N_biomass_janprof.bin
(PID.TID 0000.0001)  MDS_READ_FIELD: opening global file: ../input/input/loc1_N_biomass_janprof.bin
(PID.TID 0000.0001)  MDS_READ_FIELD: opening global file: ../input/input/loc1_N_biomass_janprof.bin
(PID.TID 0000.0001)  MDS_READ_FIELD: opening global file: ../input/input/loc1_N_biomass_janprof.bin
(PID.TID 0000.0001)  MDS_READ_FIELD: opening global file: ../input/input/loc1_N_biomass_janprof.bin
(PID.TID 0000.0001)  MDS_READ_FIELD: opening global file: ../input/input/loc1_N_biomass_janprof.bin
(PID.TID 0000.0001)  MDS_READ_FIELD: opening global file: ../input/input/loc1_N_biomass_janprof.bin
(PID.TID 0000.0001)  MDS_READ_FIELD: opening global file: ../input/input/loc1_N_biomass_janprof.bin
(PID.TID 0000.0001)  MDS_READ_FIELD: opening global file: ../input/input/loc1_N_biomass_janprof.bin
(PID.TID 0000.0001)  MDS_READ_FIELD: opening global file: ../input/input/loc1_N_biomass_janprof.bin
(PID.TID 0000.0001)  MDS_READ_FIELD: opening global file: ../input/input/loc1_N_biomass_janprof.bin
(PID.TID 0000.0001)  MDS_READ_FIELD: opening global file: ../input/input/loc1_N_biomass_janprof.bin
(PID.TID 0000.0001)  MDS_READ_FIELD: opening global file: ../input/input/loc1_N_biomass_janprof.bin
(PID.TID 0000.0001)  MDS_READ_FIELD: opening global file: ../input/input/loc1_Fe_biomass_janprof.bin
(PID.TID 0000.0001)  MDS_READ_FIELD: opening global file: ../input/input/loc1_Fe_biomass_janprof.bin
(PID.TID 0000.0001)  MDS_READ_FIELD: opening global file: ../input/input/loc1_Fe_biomass_janprof.bin
(PID.TID 0000.0001)  MDS_READ_FIELD: opening global file: ../input/input/loc1_Fe_biomass_janprof.bin
(PID.TID 0000.0001)  MDS_READ_FIELD: opening global file: ../input/input/loc1_Fe_biomass_janprof.bin
(PID.TID 0000.0001)  MDS_READ_FIELD: opening global file: ../input/input/loc1_Fe_biomass_janprof.bin
(PID.TID 0000.0001)  MDS_READ_FIELD: opening global file: ../input/input/loc1_Fe_biomass_janprof.bin
(PID.TID 0000.0001)  MDS_READ_FIELD: opening global file: ../input/input/loc1_Fe_biomass_janprof.bin
(PID.TID 0000.0001)  MDS_READ_FIELD: opening global file: ../input/input/loc1_Fe_biomass_janprof.bin
(PID.TID 0000.0001)  MDS_READ_FIELD: opening global file: ../input/input/loc1_Fe_biomass_janprof.bin
(PID.TID 0000.0001)  MDS_READ_FIELD: opening global file: ../input/input/loc1_Fe_biomass_janprof.bin
(PID.TID 0000.0001)  MDS_READ_FIELD: opening global file: ../input/input/loc1_Fe_biomass_janprof.bin
(PID.TID 0000.0001)  MDS_READ_FIELD: opening global file: ../input/input/loc1_Fe_biomass_janprof.bin
(PID.TID 0000.0001)  MDS_READ_FIELD: opening global file: ../input/input/loc1_Fe_biomass_janprof.bin
(PID.TID 0000.0001)  MDS_READ_FIELD: opening global file: ../input/input/loc1_Fe_biomass_janprof.bin
(PID.TID 0000.0001)  MDS_READ_FIELD: opening global file: ../input/input/loc1_Fe_biomass_janprof.bin
(PID.TID 0000.0001)  MDS_READ_FIELD: opening global file: ../input/input/loc1_chlorophyll_janprof.bin
(PID.TID 0000.0001)  MDS_READ_FIELD: opening global file: ../input/input/loc1_chlorophyll_janprof.bin
(PID.TID 0000.0001)  MDS_READ_FIELD: opening global file: ../input/input/loc1_chlorophyll_janprof.bin
(PID.TID 0000.0001)  MDS_READ_FIELD: opening global file: ../input/input/loc1_chlorophyll_janprof.bin
(PID.TID 0000.0001)  MDS_READ_FIELD: opening global file: ../input/input/loc1_chlorophyll_janprof.bin
(PID.TID 0000.0001)  MDS_READ_FIELD: opening global file: ../input/input/loc1_chlorophyll_janprof.bin
(PID.TID 0000.0001)  MDS_READ_FIELD: opening global file: ../input/input/loc1_chlorophyll_janprof.bin
(PID.TID 0000.0001)  MDS_READ_FIELD: opening global file: ../input/input/loc1_chlorophyll_janprof.bin
(PID.TID 0000.0001)  MDS_READ_FIELD: opening global file: ../input/input/loc1_chlorophyll_janprof.bin
(PID.TID 0000.0001)  MDS_READ_FIELD: opening global file: ../input/input/loc1_chlorophyll_janprof.bin
(PID.TID 0000.0001)  MDS_READ_FIELD: opening global file: ../input/input/loc1_chlorophyll_janprof.bin
(PID.TID 0000.0001)  MDS_READ_FIELD: opening global file: ../input/input/loc1_chlorophyll_janprof.bin
(PID.TID 0000.0001)  MDS_READ_FIELD: opening global file: ../input/input/loc1_chlorophyll_janprof.bin
(PID.TID 0000.0001)  MDS_READ_FIELD: opening global file: ../input/input/loc1_chlorophyll_janprof.bin
(PID.TID 0000.0001)  MDS_READ_FIELD: opening global file: ../input/input/loc1_chlorophyll_janprof.bin
(PID.TID 0000.0001)  MDS_READ_FIELD: opening global file: ../input/input/loc1_DOC_janprof.bin
(PID.TID 0000.0001)  MDS_READ_FIELD: opening global file: ../input/input/loc1_POC_janprof.bin
(PID.TID 0000.0001)  MDS_READ_FIELD: opening global file: ../input/input/loc1_DON_run83_janprof.bin
(PID.TID 0000.0001)  MDS_READ_FIELD: opening global file: ../input/input/loc1_PON_run83_janprof.bin
(PID.TID 0000.0001)  MDS_READ_FIELD: opening global file: ../input/input/loc1_DOFe_run83_janprof.bin
(PID.TID 0000.0001)  MDS_READ_FIELD: opening global file: ../input/input/loc1_POFe_run83_janprof.bin
(PID.TID 0000.0001) QQ random port_rand            11231   0.4077530000000000
(PID.TID 0000.0001) // =======================================================
(PID.TID 0000.0001) // Quota init variables >>> START <<<
(PID.TID 0000.0001) // =======================================================
(PID.TID 0000.0001) QQ start timeave
(PID.TID 0000.0001) // =======================================================
(PID.TID 0000.0001) // Darwin init variables >>> END <<<
(PID.TID 0000.0001) // =======================================================
(PID.TID 0000.0001) // =======================================================
(PID.TID 0000.0001) // Model current state
(PID.TID 0000.0001) // =======================================================
(PID.TID 0000.0001) 
(PID.TID 0000.0001) // =======================================================
(PID.TID 0000.0001) // Begin MONITOR dynamic field statistics
(PID.TID 0000.0001) // =======================================================
(PID.TID 0000.0001) %MON time_tsnumber                =                     0
(PID.TID 0000.0001) %MON time_secondsf                =   0.0000000000000E+00
(PID.TID 0000.0001) %MON dynstat_eta_max              =   0.0000000000000E+00
(PID.TID 0000.0001) %MON dynstat_eta_min              =   0.0000000000000E+00
(PID.TID 0000.0001) %MON dynstat_eta_mean             =   0.0000000000000E+00
(PID.TID 0000.0001) %MON dynstat_eta_sd               =   0.0000000000000E+00
(PID.TID 0000.0001) %MON dynstat_eta_del2             =   0.0000000000000E+00
(PID.TID 0000.0001) %MON dynstat_uvel_max             =   0.0000000000000E+00
(PID.TID 0000.0001) %MON dynstat_uvel_min             =   0.0000000000000E+00
(PID.TID 0000.0001) %MON dynstat_uvel_mean            =   0.0000000000000E+00
(PID.TID 0000.0001) %MON dynstat_uvel_sd              =   0.0000000000000E+00
(PID.TID 0000.0001) %MON dynstat_uvel_del2            =   0.0000000000000E+00
(PID.TID 0000.0001) %MON dynstat_vvel_max             =   0.0000000000000E+00
(PID.TID 0000.0001) %MON dynstat_vvel_min             =   0.0000000000000E+00
(PID.TID 0000.0001) %MON dynstat_vvel_mean            =   0.0000000000000E+00
(PID.TID 0000.0001) %MON dynstat_vvel_sd              =   0.0000000000000E+00
(PID.TID 0000.0001) %MON dynstat_vvel_del2            =   0.0000000000000E+00
(PID.TID 0000.0001) %MON dynstat_wvel_max             =   0.0000000000000E+00
(PID.TID 0000.0001) %MON dynstat_wvel_min             =   0.0000000000000E+00
(PID.TID 0000.0001) %MON dynstat_wvel_mean            =   0.0000000000000E+00
(PID.TID 0000.0001) %MON dynstat_wvel_sd              =   0.0000000000000E+00
(PID.TID 0000.0001) %MON dynstat_wvel_del2            =   0.0000000000000E+00
(PID.TID 0000.0001) %MON dynstat_theta_max            =   6.5096502304077E+00
(PID.TID 0000.0001) %MON dynstat_theta_min            =  -9.3889999389648E-01
(PID.TID 0000.0001) %MON dynstat_theta_mean           =   1.5603987870469E-01
(PID.TID 0000.0001) %MON dynstat_theta_sd             =   2.0853921626073E+00
(PID.TID 0000.0001) %MON dynstat_theta_del2           =   0.0000000000000E+00
(PID.TID 0000.0001) %MON dynstat_salt_max             =   3.5000000000000E+01
(PID.TID 0000.0001) %MON dynstat_salt_min             =   3.5000000000000E+01
(PID.TID 0000.0001) %MON dynstat_salt_mean            =   3.5000000000000E+01
(PID.TID 0000.0001) %MON dynstat_salt_sd              =   7.1054273576010E-15
(PID.TID 0000.0001) %MON dynstat_salt_del2            =   0.0000000000000E+00
(PID.TID 0000.0001) %MON dynstat_sst_max              =   6.5096502304077E+00
(PID.TID 0000.0001) %MON dynstat_sst_min              =   6.5096502304077E+00
(PID.TID 0000.0001) %MON dynstat_sst_mean             =   6.5096502304077E+00
(PID.TID 0000.0001) %MON dynstat_sst_sd               =   0.0000000000000E+00
(PID.TID 0000.0001) %MON dynstat_sst_del2             =   0.0000000000000E+00
(PID.TID 0000.0001) %MON dynstat_sss_max              =   3.5000000000000E+01
(PID.TID 0000.0001) %MON dynstat_sss_min              =   3.5000000000000E+01
(PID.TID 0000.0001) %MON dynstat_sss_mean             =   3.5000000000000E+01
(PID.TID 0000.0001) %MON dynstat_sss_sd               =   0.0000000000000E+00
(PID.TID 0000.0001) %MON dynstat_sss_del2             =   0.0000000000000E+00
(PID.TID 0000.0001) %MON forcing_qnet_max             =   0.0000000000000E+00
(PID.TID 0000.0001) %MON forcing_qnet_min             =   0.0000000000000E+00
(PID.TID 0000.0001) %MON forcing_qnet_mean            =   0.0000000000000E+00
(PID.TID 0000.0001) %MON forcing_qnet_sd              =   0.0000000000000E+00
(PID.TID 0000.0001) %MON forcing_qnet_del2            =   0.0000000000000E+00
(PID.TID 0000.0001) %MON forcing_qsw_max              =   0.0000000000000E+00
(PID.TID 0000.0001) %MON forcing_qsw_min              =   0.0000000000000E+00
(PID.TID 0000.0001) %MON forcing_qsw_mean             =   0.0000000000000E+00
(PID.TID 0000.0001) %MON forcing_qsw_sd               =   0.0000000000000E+00
(PID.TID 0000.0001) %MON forcing_qsw_del2             =   0.0000000000000E+00
(PID.TID 0000.0001) %MON forcing_empmr_max            =   0.0000000000000E+00
(PID.TID 0000.0001) %MON forcing_empmr_min            =   0.0000000000000E+00
(PID.TID 0000.0001) %MON forcing_empmr_mean           =   0.0000000000000E+00
(PID.TID 0000.0001) %MON forcing_empmr_sd             =   0.0000000000000E+00
(PID.TID 0000.0001) %MON forcing_empmr_del2           =   0.0000000000000E+00
(PID.TID 0000.0001) %MON forcing_fu_max               =   1.8626669645309E+00
(PID.TID 0000.0001) %MON forcing_fu_min               =   1.8626669645309E+00
(PID.TID 0000.0001) %MON forcing_fu_mean              =   1.8626669645309E+00
(PID.TID 0000.0001) %MON forcing_fu_sd                =   0.0000000000000E+00
(PID.TID 0000.0001) %MON forcing_fu_del2              =   0.0000000000000E+00
(PID.TID 0000.0001) %MON forcing_fv_max               =   1.5513329505920E+00
(PID.TID 0000.0001) %MON forcing_fv_min               =   1.5513329505920E+00
(PID.TID 0000.0001) %MON forcing_fv_mean              =   1.5513329505920E+00
(PID.TID 0000.0001) %MON forcing_fv_sd                =   0.0000000000000E+00
(PID.TID 0000.0001) %MON forcing_fv_del2              =   0.0000000000000E+00
(PID.TID 0000.0001) %MON advcfl_uvel_max              =   0.0000000000000E+00
(PID.TID 0000.0001) %MON advcfl_vvel_max              =   0.0000000000000E+00
(PID.TID 0000.0001) %MON advcfl_wvel_max              =   0.0000000000000E+00
(PID.TID 0000.0001) %MON advcfl_W_hf_max              =   0.0000000000000E+00
(PID.TID 0000.0001) %MON pe_b_mean                    =   0.0000000000000E+00
(PID.TID 0000.0001) %MON ke_max                       =   0.0000000000000E+00
(PID.TID 0000.0001) %MON ke_mean                      =   0.0000000000000E+00
(PID.TID 0000.0001) %MON ke_vol                       =   4.1199767883485E+13
(PID.TID 0000.0001) %MON vort_r_min                   =   0.0000000000000E+00
(PID.TID 0000.0001) %MON vort_r_max                   =   0.0000000000000E+00
(PID.TID 0000.0001) %MON vort_a_mean                  =  -4.5067801836625E-05
(PID.TID 0000.0001) %MON vort_a_sd                    =  -4.1359030627651E-25
(PID.TID 0000.0001) %MON vort_p_mean                  =  -4.5067801836625E-05
(PID.TID 0000.0001) %MON vort_p_sd                    =   0.0000000000000E+00
(PID.TID 0000.0001) %MON surfExpan_theta_mean         =   0.0000000000000E+00
(PID.TID 0000.0001) %MON surfExpan_salt_mean          =   0.0000000000000E+00
(PID.TID 0000.0001) // =======================================================
(PID.TID 0000.0001) // End MONITOR dynamic field statistics
(PID.TID 0000.0001) // =======================================================
(PID.TID 0000.0001) // =======================================================
(PID.TID 0000.0001) // Begin MONITOR ptracer field statistics
(PID.TID 0000.0001) // =======================================================
(PID.TID 0000.0001) %MON trcstat_ptracer01_max        =   2.1623999023438E+03
(PID.TID 0000.0001) %MON trcstat_ptracer01_min        =   2.0848964843750E+03
(PID.TID 0000.0001) %MON trcstat_ptracer01_mean       =   2.1557233177698E+03
(PID.TID 0000.0001) %MON trcstat_ptracer01_sd         =   1.1620928165015E+01
(PID.TID 0000.0001) %MON trcstat_ptracer01_del2       =   0.0000000000000E+00
(PID.TID 0000.0001) %MON trcstat_ptracer02_max        =   1.5341600418091E+01
(PID.TID 0000.0001) %MON trcstat_ptracer02_min        =   1.1842899322510E+01
(PID.TID 0000.0001) %MON trcstat_ptracer02_mean       =   1.4471561560133E+01
(PID.TID 0000.0001) %MON trcstat_ptracer02_sd         =   9.1988937719318E-01
(PID.TID 0000.0001) %MON trcstat_ptracer02_del2       =   0.0000000000000E+00
(PID.TID 0000.0001) %MON trcstat_ptracer03_max        =   3.7918146699667E-02
(PID.TID 0000.0001) %MON trcstat_ptracer03_min        =   0.0000000000000E+00
(PID.TID 0000.0001) %MON trcstat_ptracer03_mean       =   7.8145818443748E-03
(PID.TID 0000.0001) %MON trcstat_ptracer03_sd         =   1.0806319055981E-02
(PID.TID 0000.0001) %MON trcstat_ptracer03_del2       =   0.0000000000000E+00
(PID.TID 0000.0001) %MON trcstat_ptracer04_max        =   2.2952675353736E-03
(PID.TID 0000.0001) %MON trcstat_ptracer04_min        =   0.0000000000000E+00
(PID.TID 0000.0001) %MON trcstat_ptracer04_mean       =   3.3611169662653E-04
(PID.TID 0000.0001) %MON trcstat_ptracer04_sd         =   4.7743954057331E-04
(PID.TID 0000.0001) %MON trcstat_ptracer04_del2       =   0.0000000000000E+00
(PID.TID 0000.0001) %MON trcstat_ptracer05_max        =   9.1629312373698E-04
(PID.TID 0000.0001) %MON trcstat_ptracer05_min        =   0.0000000000000E+00
(PID.TID 0000.0001) %MON trcstat_ptracer05_mean       =   5.7980704863419E-04
(PID.TID 0000.0001) %MON trcstat_ptracer05_sd         =   3.7871275821035E-04
(PID.TID 0000.0001) %MON trcstat_ptracer05_del2       =   0.0000000000000E+00
(PID.TID 0000.0001) %MON trcstat_ptracer06_max        =   6.6250001040657E-09
(PID.TID 0000.0001) %MON trcstat_ptracer06_min        =   6.6250001040657E-09
(PID.TID 0000.0001) %MON trcstat_ptracer06_mean       =   6.6250001040658E-09
(PID.TID 0000.0001) %MON trcstat_ptracer06_sd         =   2.4815418376591E-24
(PID.TID 0000.0001) %MON trcstat_ptracer06_del2       =   0.0000000000000E+00
(PID.TID 0000.0001) %MON trcstat_ptracer07_max        =   6.6250001040657E-09
(PID.TID 0000.0001) %MON trcstat_ptracer07_min        =   6.6250001040657E-09
(PID.TID 0000.0001) %MON trcstat_ptracer07_mean       =   6.6250001040658E-09
(PID.TID 0000.0001) %MON trcstat_ptracer07_sd         =   2.4815418376591E-24
(PID.TID 0000.0001) %MON trcstat_ptracer07_del2       =   0.0000000000000E+00
(PID.TID 0000.0001) %MON trcstat_ptracer08_max        =   6.6250001040657E-09
(PID.TID 0000.0001) %MON trcstat_ptracer08_min        =   6.6250001040657E-09
(PID.TID 0000.0001) %MON trcstat_ptracer08_mean       =   6.6250001040658E-09
(PID.TID 0000.0001) %MON trcstat_ptracer08_sd         =   2.4815418376591E-24
(PID.TID 0000.0001) %MON trcstat_ptracer08_del2       =   0.0000000000000E+00
(PID.TID 0000.0001) %MON trcstat_ptracer09_max        =   6.6250001040657E-09
(PID.TID 0000.0001) %MON trcstat_ptracer09_min        =   6.6250001040657E-09
(PID.TID 0000.0001) %MON trcstat_ptracer09_mean       =   6.6250001040658E-09
(PID.TID 0000.0001) %MON trcstat_ptracer09_sd         =   2.4815418376591E-24
(PID.TID 0000.0001) %MON trcstat_ptracer09_del2       =   0.0000000000000E+00
(PID.TID 0000.0001) %MON trcstat_ptracer10_max        =   6.6250001040657E-09
(PID.TID 0000.0001) %MON trcstat_ptracer10_min        =   6.6250001040657E-09
(PID.TID 0000.0001) %MON trcstat_ptracer10_mean       =   6.6250001040658E-09
(PID.TID 0000.0001) %MON trcstat_ptracer10_sd         =   2.4815418376591E-24
(PID.TID 0000.0001) %MON trcstat_ptracer10_del2       =   0.0000000000000E+00
(PID.TID 0000.0001) %MON trcstat_ptracer11_max        =   6.6250001040657E-09
(PID.TID 0000.0001) %MON trcstat_ptracer11_min        =   6.6250001040657E-09
(PID.TID 0000.0001) %MON trcstat_ptracer11_mean       =   6.6250001040658E-09
(PID.TID 0000.0001) %MON trcstat_ptracer11_sd         =   2.4815418376591E-24
(PID.TID 0000.0001) %MON trcstat_ptracer11_del2       =   0.0000000000000E+00
(PID.TID 0000.0001) %MON trcstat_ptracer12_max        =   6.6250001040657E-09
(PID.TID 0000.0001) %MON trcstat_ptracer12_min        =   6.6250001040657E-09
(PID.TID 0000.0001) %MON trcstat_ptracer12_mean       =   6.6250001040658E-09
(PID.TID 0000.0001) %MON trcstat_ptracer12_sd         =   2.4815418376591E-24
(PID.TID 0000.0001) %MON trcstat_ptracer12_del2       =   0.0000000000000E+00
(PID.TID 0000.0001) %MON trcstat_ptracer13_max        =   6.6250001040657E-09
(PID.TID 0000.0001) %MON trcstat_ptracer13_min        =   6.6250001040657E-09
(PID.TID 0000.0001) %MON trcstat_ptracer13_mean       =   6.6250001040658E-09
(PID.TID 0000.0001) %MON trcstat_ptracer13_sd         =   2.4815418376591E-24
(PID.TID 0000.0001) %MON trcstat_ptracer13_del2       =   0.0000000000000E+00
(PID.TID 0000.0001) %MON trcstat_ptracer14_max        =   6.6250001040657E-09
(PID.TID 0000.0001) %MON trcstat_ptracer14_min        =   6.6250001040657E-09
(PID.TID 0000.0001) %MON trcstat_ptracer14_mean       =   6.6250001040658E-09
(PID.TID 0000.0001) %MON trcstat_ptracer14_sd         =   2.4815418376591E-24
(PID.TID 0000.0001) %MON trcstat_ptracer14_del2       =   0.0000000000000E+00
(PID.TID 0000.0001) %MON trcstat_ptracer15_max        =   6.6250001040657E-09
(PID.TID 0000.0001) %MON trcstat_ptracer15_min        =   6.6250001040657E-09
(PID.TID 0000.0001) %MON trcstat_ptracer15_mean       =   6.6250001040658E-09
(PID.TID 0000.0001) %MON trcstat_ptracer15_sd         =   2.4815418376591E-24
(PID.TID 0000.0001) %MON trcstat_ptracer15_del2       =   0.0000000000000E+00
(PID.TID 0000.0001) %MON trcstat_ptracer16_max        =   6.6250001040657E-09
(PID.TID 0000.0001) %MON trcstat_ptracer16_min        =   6.6250001040657E-09
(PID.TID 0000.0001) %MON trcstat_ptracer16_mean       =   6.6250001040658E-09
(PID.TID 0000.0001) %MON trcstat_ptracer16_sd         =   2.4815418376591E-24
(PID.TID 0000.0001) %MON trcstat_ptracer16_del2       =   0.0000000000000E+00
(PID.TID 0000.0001) %MON trcstat_ptracer17_max        =   6.6250001040657E-09
(PID.TID 0000.0001) %MON trcstat_ptracer17_min        =   6.6250001040657E-09
(PID.TID 0000.0001) %MON trcstat_ptracer17_mean       =   6.6250001040658E-09
(PID.TID 0000.0001) %MON trcstat_ptracer17_sd         =   2.4815418376591E-24
(PID.TID 0000.0001) %MON trcstat_ptracer17_del2       =   0.0000000000000E+00
(PID.TID 0000.0001) %MON trcstat_ptracer18_max        =   6.6250001040657E-09
(PID.TID 0000.0001) %MON trcstat_ptracer18_min        =   6.6250001040657E-09
(PID.TID 0000.0001) %MON trcstat_ptracer18_mean       =   6.6250001040658E-09
(PID.TID 0000.0001) %MON trcstat_ptracer18_sd         =   2.4815418376591E-24
(PID.TID 0000.0001) %MON trcstat_ptracer18_del2       =   0.0000000000000E+00
(PID.TID 0000.0001) %MON trcstat_ptracer19_max        =   6.6250001040657E-09
(PID.TID 0000.0001) %MON trcstat_ptracer19_min        =   6.6250001040657E-09
(PID.TID 0000.0001) %MON trcstat_ptracer19_mean       =   6.6250001040658E-09
(PID.TID 0000.0001) %MON trcstat_ptracer19_sd         =   2.4815418376591E-24
(PID.TID 0000.0001) %MON trcstat_ptracer19_del2       =   0.0000000000000E+00
(PID.TID 0000.0001) %MON trcstat_ptracer20_max        =   6.6250001040657E-09
(PID.TID 0000.0001) %MON trcstat_ptracer20_min        =   6.6250001040657E-09
(PID.TID 0000.0001) %MON trcstat_ptracer20_mean       =   6.6250001040658E-09
(PID.TID 0000.0001) %MON trcstat_ptracer20_sd         =   2.4815418376591E-24
(PID.TID 0000.0001) %MON trcstat_ptracer20_del2       =   0.0000000000000E+00
(PID.TID 0000.0001) %MON trcstat_ptracer21_max        =   6.6250001040657E-09
(PID.TID 0000.0001) %MON trcstat_ptracer21_min        =   6.6250001040657E-09
(PID.TID 0000.0001) %MON trcstat_ptracer21_mean       =   6.6250001040658E-09
(PID.TID 0000.0001) %MON trcstat_ptracer21_sd         =   2.4815418376591E-24
(PID.TID 0000.0001) %MON trcstat_ptracer21_del2       =   0.0000000000000E+00
(PID.TID 0000.0001) %MON trcstat_ptracer22_max        =   4.9999998585903E-10
(PID.TID 0000.0001) %MON trcstat_ptracer22_min        =   4.9999998585903E-10
(PID.TID 0000.0001) %MON trcstat_ptracer22_mean       =   4.9999998585903E-10
(PID.TID 0000.0001) %MON trcstat_ptracer22_sd         =   0.0000000000000E+00
(PID.TID 0000.0001) %MON trcstat_ptracer22_del2       =   0.0000000000000E+00
(PID.TID 0000.0001) %MON trcstat_ptracer23_max        =   4.9999998585903E-10
(PID.TID 0000.0001) %MON trcstat_ptracer23_min        =   4.9999998585903E-10
(PID.TID 0000.0001) %MON trcstat_ptracer23_mean       =   4.9999998585903E-10
(PID.TID 0000.0001) %MON trcstat_ptracer23_sd         =   0.0000000000000E+00
(PID.TID 0000.0001) %MON trcstat_ptracer23_del2       =   0.0000000000000E+00
(PID.TID 0000.0001) %MON trcstat_ptracer24_max        =   4.9999998585903E-10
(PID.TID 0000.0001) %MON trcstat_ptracer24_min        =   4.9999998585903E-10
(PID.TID 0000.0001) %MON trcstat_ptracer24_mean       =   4.9999998585903E-10
(PID.TID 0000.0001) %MON trcstat_ptracer24_sd         =   0.0000000000000E+00
(PID.TID 0000.0001) %MON trcstat_ptracer24_del2       =   0.0000000000000E+00
(PID.TID 0000.0001) %MON trcstat_ptracer25_max        =   4.9999998585903E-10
(PID.TID 0000.0001) %MON trcstat_ptracer25_min        =   4.9999998585903E-10
(PID.TID 0000.0001) %MON trcstat_ptracer25_mean       =   4.9999998585903E-10
(PID.TID 0000.0001) %MON trcstat_ptracer25_sd         =   0.0000000000000E+00
(PID.TID 0000.0001) %MON trcstat_ptracer25_del2       =   0.0000000000000E+00
(PID.TID 0000.0001) %MON trcstat_ptracer26_max        =   4.9999998585903E-10
(PID.TID 0000.0001) %MON trcstat_ptracer26_min        =   4.9999998585903E-10
(PID.TID 0000.0001) %MON trcstat_ptracer26_mean       =   4.9999998585903E-10
(PID.TID 0000.0001) %MON trcstat_ptracer26_sd         =   0.0000000000000E+00
(PID.TID 0000.0001) %MON trcstat_ptracer26_del2       =   0.0000000000000E+00
(PID.TID 0000.0001) %MON trcstat_ptracer27_max        =   4.9999998585903E-10
(PID.TID 0000.0001) %MON trcstat_ptracer27_min        =   4.9999998585903E-10
(PID.TID 0000.0001) %MON trcstat_ptracer27_mean       =   4.9999998585903E-10
(PID.TID 0000.0001) %MON trcstat_ptracer27_sd         =   0.0000000000000E+00
(PID.TID 0000.0001) %MON trcstat_ptracer27_del2       =   0.0000000000000E+00
(PID.TID 0000.0001) %MON trcstat_ptracer28_max        =   4.9999998585903E-10
(PID.TID 0000.0001) %MON trcstat_ptracer28_min        =   4.9999998585903E-10
(PID.TID 0000.0001) %MON trcstat_ptracer28_mean       =   4.9999998585903E-10
(PID.TID 0000.0001) %MON trcstat_ptracer28_sd         =   0.0000000000000E+00
(PID.TID 0000.0001) %MON trcstat_ptracer28_del2       =   0.0000000000000E+00
(PID.TID 0000.0001) %MON trcstat_ptracer29_max        =   4.9999998585903E-10
(PID.TID 0000.0001) %MON trcstat_ptracer29_min        =   4.9999998585903E-10
(PID.TID 0000.0001) %MON trcstat_ptracer29_mean       =   4.9999998585903E-10
(PID.TID 0000.0001) %MON trcstat_ptracer29_sd         =   0.0000000000000E+00
(PID.TID 0000.0001) %MON trcstat_ptracer29_del2       =   0.0000000000000E+00
(PID.TID 0000.0001) %MON trcstat_ptracer30_max        =   4.9999998585903E-10
(PID.TID 0000.0001) %MON trcstat_ptracer30_min        =   4.9999998585903E-10
(PID.TID 0000.0001) %MON trcstat_ptracer30_mean       =   4.9999998585903E-10
(PID.TID 0000.0001) %MON trcstat_ptracer30_sd         =   0.0000000000000E+00
(PID.TID 0000.0001) %MON trcstat_ptracer30_del2       =   0.0000000000000E+00
(PID.TID 0000.0001) %MON trcstat_ptracer31_max        =   4.9999998585903E-10
(PID.TID 0000.0001) %MON trcstat_ptracer31_min        =   4.9999998585903E-10
(PID.TID 0000.0001) %MON trcstat_ptracer31_mean       =   4.9999998585903E-10
(PID.TID 0000.0001) %MON trcstat_ptracer31_sd         =   0.0000000000000E+00
(PID.TID 0000.0001) %MON trcstat_ptracer31_del2       =   0.0000000000000E+00
(PID.TID 0000.0001) %MON trcstat_ptracer32_max        =   4.9999998585903E-10
(PID.TID 0000.0001) %MON trcstat_ptracer32_min        =   4.9999998585903E-10
(PID.TID 0000.0001) %MON trcstat_ptracer32_mean       =   4.9999998585903E-10
(PID.TID 0000.0001) %MON trcstat_ptracer32_sd         =   0.0000000000000E+00
(PID.TID 0000.0001) %MON trcstat_ptracer32_del2       =   0.0000000000000E+00
(PID.TID 0000.0001) %MON trcstat_ptracer33_max        =   4.9999998585903E-10
(PID.TID 0000.0001) %MON trcstat_ptracer33_min        =   4.9999998585903E-10
(PID.TID 0000.0001) %MON trcstat_ptracer33_mean       =   4.9999998585903E-10
(PID.TID 0000.0001) %MON trcstat_ptracer33_sd         =   0.0000000000000E+00
(PID.TID 0000.0001) %MON trcstat_ptracer33_del2       =   0.0000000000000E+00
(PID.TID 0000.0001) %MON trcstat_ptracer34_max        =   4.9999998585903E-10
(PID.TID 0000.0001) %MON trcstat_ptracer34_min        =   4.9999998585903E-10
(PID.TID 0000.0001) %MON trcstat_ptracer34_mean       =   4.9999998585903E-10
(PID.TID 0000.0001) %MON trcstat_ptracer34_sd         =   0.0000000000000E+00
(PID.TID 0000.0001) %MON trcstat_ptracer34_del2       =   0.0000000000000E+00
(PID.TID 0000.0001) %MON trcstat_ptracer35_max        =   4.9999998585903E-10
(PID.TID 0000.0001) %MON trcstat_ptracer35_min        =   4.9999998585903E-10
(PID.TID 0000.0001) %MON trcstat_ptracer35_mean       =   4.9999998585903E-10
(PID.TID 0000.0001) %MON trcstat_ptracer35_sd         =   0.0000000000000E+00
(PID.TID 0000.0001) %MON trcstat_ptracer35_del2       =   0.0000000000000E+00
(PID.TID 0000.0001) %MON trcstat_ptracer36_max        =   4.9999998585903E-10
(PID.TID 0000.0001) %MON trcstat_ptracer36_min        =   4.9999998585903E-10
(PID.TID 0000.0001) %MON trcstat_ptracer36_mean       =   4.9999998585903E-10
(PID.TID 0000.0001) %MON trcstat_ptracer36_sd         =   0.0000000000000E+00
(PID.TID 0000.0001) %MON trcstat_ptracer36_del2       =   0.0000000000000E+00
(PID.TID 0000.0001) %MON trcstat_ptracer37_max        =   4.9999998585903E-10
(PID.TID 0000.0001) %MON trcstat_ptracer37_min        =   4.9999998585903E-10
(PID.TID 0000.0001) %MON trcstat_ptracer37_mean       =   4.9999998585903E-10
(PID.TID 0000.0001) %MON trcstat_ptracer37_sd         =   0.0000000000000E+00
(PID.TID 0000.0001) %MON trcstat_ptracer37_del2       =   0.0000000000000E+00
(PID.TID 0000.0001) %MON trcstat_ptracer38_max        =   2.9999999473550E-14
(PID.TID 0000.0001) %MON trcstat_ptracer38_min        =   2.9999999473550E-14
(PID.TID 0000.0001) %MON trcstat_ptracer38_mean       =   2.9999999473550E-14
(PID.TID 0000.0001) %MON trcstat_ptracer38_sd         =   6.3108872417681E-30
(PID.TID 0000.0001) %MON trcstat_ptracer38_del2       =   0.0000000000000E+00
(PID.TID 0000.0001) %MON trcstat_ptracer39_max        =   2.9999999473550E-14
(PID.TID 0000.0001) %MON trcstat_ptracer39_min        =   2.9999999473550E-14
(PID.TID 0000.0001) %MON trcstat_ptracer39_mean       =   2.9999999473550E-14
(PID.TID 0000.0001) %MON trcstat_ptracer39_sd         =   6.3108872417681E-30
(PID.TID 0000.0001) %MON trcstat_ptracer39_del2       =   0.0000000000000E+00
(PID.TID 0000.0001) %MON trcstat_ptracer40_max        =   2.9999999473550E-14
(PID.TID 0000.0001) %MON trcstat_ptracer40_min        =   2.9999999473550E-14
(PID.TID 0000.0001) %MON trcstat_ptracer40_mean       =   2.9999999473550E-14
(PID.TID 0000.0001) %MON trcstat_ptracer40_sd         =   6.3108872417681E-30
(PID.TID 0000.0001) %MON trcstat_ptracer40_del2       =   0.0000000000000E+00
(PID.TID 0000.0001) %MON trcstat_ptracer41_max        =   2.9999999473550E-14
(PID.TID 0000.0001) %MON trcstat_ptracer41_min        =   2.9999999473550E-14
(PID.TID 0000.0001) %MON trcstat_ptracer41_mean       =   2.9999999473550E-14
(PID.TID 0000.0001) %MON trcstat_ptracer41_sd         =   6.3108872417681E-30
(PID.TID 0000.0001) %MON trcstat_ptracer41_del2       =   0.0000000000000E+00
(PID.TID 0000.0001) %MON trcstat_ptracer42_max        =   2.9999999473550E-14
(PID.TID 0000.0001) %MON trcstat_ptracer42_min        =   2.9999999473550E-14
(PID.TID 0000.0001) %MON trcstat_ptracer42_mean       =   2.9999999473550E-14
(PID.TID 0000.0001) %MON trcstat_ptracer42_sd         =   6.3108872417681E-30
(PID.TID 0000.0001) %MON trcstat_ptracer42_del2       =   0.0000000000000E+00
(PID.TID 0000.0001) %MON trcstat_ptracer43_max        =   2.9999999473550E-14
(PID.TID 0000.0001) %MON trcstat_ptracer43_min        =   2.9999999473550E-14
(PID.TID 0000.0001) %MON trcstat_ptracer43_mean       =   2.9999999473550E-14
(PID.TID 0000.0001) %MON trcstat_ptracer43_sd         =   6.3108872417681E-30
(PID.TID 0000.0001) %MON trcstat_ptracer43_del2       =   0.0000000000000E+00
(PID.TID 0000.0001) %MON trcstat_ptracer44_max        =   2.9999999473550E-14
(PID.TID 0000.0001) %MON trcstat_ptracer44_min        =   2.9999999473550E-14
(PID.TID 0000.0001) %MON trcstat_ptracer44_mean       =   2.9999999473550E-14
(PID.TID 0000.0001) %MON trcstat_ptracer44_sd         =   6.3108872417681E-30
(PID.TID 0000.0001) %MON trcstat_ptracer44_del2       =   0.0000000000000E+00
(PID.TID 0000.0001) %MON trcstat_ptracer45_max        =   2.9999999473550E-14
(PID.TID 0000.0001) %MON trcstat_ptracer45_min        =   2.9999999473550E-14
(PID.TID 0000.0001) %MON trcstat_ptracer45_mean       =   2.9999999473550E-14
(PID.TID 0000.0001) %MON trcstat_ptracer45_sd         =   6.3108872417681E-30
(PID.TID 0000.0001) %MON trcstat_ptracer45_del2       =   0.0000000000000E+00
(PID.TID 0000.0001) %MON trcstat_ptracer46_max        =   2.9999999473550E-14
(PID.TID 0000.0001) %MON trcstat_ptracer46_min        =   2.9999999473550E-14
(PID.TID 0000.0001) %MON trcstat_ptracer46_mean       =   2.9999999473550E-14
(PID.TID 0000.0001) %MON trcstat_ptracer46_sd         =   6.3108872417681E-30
(PID.TID 0000.0001) %MON trcstat_ptracer46_del2       =   0.0000000000000E+00
(PID.TID 0000.0001) %MON trcstat_ptracer47_max        =   2.9999999473550E-14
(PID.TID 0000.0001) %MON trcstat_ptracer47_min        =   2.9999999473550E-14
(PID.TID 0000.0001) %MON trcstat_ptracer47_mean       =   2.9999999473550E-14
(PID.TID 0000.0001) %MON trcstat_ptracer47_sd         =   6.3108872417681E-30
(PID.TID 0000.0001) %MON trcstat_ptracer47_del2       =   0.0000000000000E+00
(PID.TID 0000.0001) %MON trcstat_ptracer48_max        =   2.9999999473550E-14
(PID.TID 0000.0001) %MON trcstat_ptracer48_min        =   2.9999999473550E-14
(PID.TID 0000.0001) %MON trcstat_ptracer48_mean       =   2.9999999473550E-14
(PID.TID 0000.0001) %MON trcstat_ptracer48_sd         =   6.3108872417681E-30
(PID.TID 0000.0001) %MON trcstat_ptracer48_del2       =   0.0000000000000E+00
(PID.TID 0000.0001) %MON trcstat_ptracer49_max        =   2.9999999473550E-14
(PID.TID 0000.0001) %MON trcstat_ptracer49_min        =   2.9999999473550E-14
(PID.TID 0000.0001) %MON trcstat_ptracer49_mean       =   2.9999999473550E-14
(PID.TID 0000.0001) %MON trcstat_ptracer49_sd         =   6.3108872417681E-30
(PID.TID 0000.0001) %MON trcstat_ptracer49_del2       =   0.0000000000000E+00
(PID.TID 0000.0001) %MON trcstat_ptracer50_max        =   2.9999999473550E-14
(PID.TID 0000.0001) %MON trcstat_ptracer50_min        =   2.9999999473550E-14
(PID.TID 0000.0001) %MON trcstat_ptracer50_mean       =   2.9999999473550E-14
(PID.TID 0000.0001) %MON trcstat_ptracer50_sd         =   6.3108872417681E-30
(PID.TID 0000.0001) %MON trcstat_ptracer50_del2       =   0.0000000000000E+00
(PID.TID 0000.0001) %MON trcstat_ptracer51_max        =   2.9999999473550E-14
(PID.TID 0000.0001) %MON trcstat_ptracer51_min        =   2.9999999473550E-14
(PID.TID 0000.0001) %MON trcstat_ptracer51_mean       =   2.9999999473550E-14
(PID.TID 0000.0001) %MON trcstat_ptracer51_sd         =   6.3108872417681E-30
(PID.TID 0000.0001) %MON trcstat_ptracer51_del2       =   0.0000000000000E+00
(PID.TID 0000.0001) %MON trcstat_ptracer52_max        =   2.9999999473550E-14
(PID.TID 0000.0001) %MON trcstat_ptracer52_min        =   2.9999999473550E-14
(PID.TID 0000.0001) %MON trcstat_ptracer52_mean       =   2.9999999473550E-14
(PID.TID 0000.0001) %MON trcstat_ptracer52_sd         =   6.3108872417681E-30
(PID.TID 0000.0001) %MON trcstat_ptracer52_del2       =   0.0000000000000E+00
(PID.TID 0000.0001) %MON trcstat_ptracer53_max        =   2.9999999473550E-14
(PID.TID 0000.0001) %MON trcstat_ptracer53_min        =   2.9999999473550E-14
(PID.TID 0000.0001) %MON trcstat_ptracer53_mean       =   2.9999999473550E-14
(PID.TID 0000.0001) %MON trcstat_ptracer53_sd         =   6.3108872417681E-30
(PID.TID 0000.0001) %MON trcstat_ptracer53_del2       =   0.0000000000000E+00
(PID.TID 0000.0001) %MON trcstat_ptracer54_max        =   9.9999997171807E-10
(PID.TID 0000.0001) %MON trcstat_ptracer54_min        =   9.9999997171807E-10
(PID.TID 0000.0001) %MON trcstat_ptracer54_mean       =   9.9999997171807E-10
(PID.TID 0000.0001) %MON trcstat_ptracer54_sd         =   0.0000000000000E+00
(PID.TID 0000.0001) %MON trcstat_ptracer54_del2       =   0.0000000000000E+00
(PID.TID 0000.0001) %MON trcstat_ptracer55_max        =   9.9999997171807E-10
(PID.TID 0000.0001) %MON trcstat_ptracer55_min        =   9.9999997171807E-10
(PID.TID 0000.0001) %MON trcstat_ptracer55_mean       =   9.9999997171807E-10
(PID.TID 0000.0001) %MON trcstat_ptracer55_sd         =   0.0000000000000E+00
(PID.TID 0000.0001) %MON trcstat_ptracer55_del2       =   0.0000000000000E+00
(PID.TID 0000.0001) %MON trcstat_ptracer56_max        =   9.9999997171807E-10
(PID.TID 0000.0001) %MON trcstat_ptracer56_min        =   9.9999997171807E-10
(PID.TID 0000.0001) %MON trcstat_ptracer56_mean       =   9.9999997171807E-10
(PID.TID 0000.0001) %MON trcstat_ptracer56_sd         =   0.0000000000000E+00
(PID.TID 0000.0001) %MON trcstat_ptracer56_del2       =   0.0000000000000E+00
(PID.TID 0000.0001) %MON trcstat_ptracer57_max        =   9.9999997171807E-10
(PID.TID 0000.0001) %MON trcstat_ptracer57_min        =   9.9999997171807E-10
(PID.TID 0000.0001) %MON trcstat_ptracer57_mean       =   9.9999997171807E-10
(PID.TID 0000.0001) %MON trcstat_ptracer57_sd         =   0.0000000000000E+00
(PID.TID 0000.0001) %MON trcstat_ptracer57_del2       =   0.0000000000000E+00
(PID.TID 0000.0001) %MON trcstat_ptracer58_max        =   9.9999997171807E-10
(PID.TID 0000.0001) %MON trcstat_ptracer58_min        =   9.9999997171807E-10
(PID.TID 0000.0001) %MON trcstat_ptracer58_mean       =   9.9999997171807E-10
(PID.TID 0000.0001) %MON trcstat_ptracer58_sd         =   0.0000000000000E+00
(PID.TID 0000.0001) %MON trcstat_ptracer58_del2       =   0.0000000000000E+00
(PID.TID 0000.0001) %MON trcstat_ptracer59_max        =   9.9999997171807E-10
(PID.TID 0000.0001) %MON trcstat_ptracer59_min        =   9.9999997171807E-10
(PID.TID 0000.0001) %MON trcstat_ptracer59_mean       =   9.9999997171807E-10
(PID.TID 0000.0001) %MON trcstat_ptracer59_sd         =   0.0000000000000E+00
(PID.TID 0000.0001) %MON trcstat_ptracer59_del2       =   0.0000000000000E+00
(PID.TID 0000.0001) %MON trcstat_ptracer60_max        =   9.9999997171807E-10
(PID.TID 0000.0001) %MON trcstat_ptracer60_min        =   9.9999997171807E-10
(PID.TID 0000.0001) %MON trcstat_ptracer60_mean       =   9.9999997171807E-10
(PID.TID 0000.0001) %MON trcstat_ptracer60_sd         =   0.0000000000000E+00
(PID.TID 0000.0001) %MON trcstat_ptracer60_del2       =   0.0000000000000E+00
(PID.TID 0000.0001) %MON trcstat_ptracer61_max        =   9.9999997171807E-10
(PID.TID 0000.0001) %MON trcstat_ptracer61_min        =   9.9999997171807E-10
(PID.TID 0000.0001) %MON trcstat_ptracer61_mean       =   9.9999997171807E-10
(PID.TID 0000.0001) %MON trcstat_ptracer61_sd         =   0.0000000000000E+00
(PID.TID 0000.0001) %MON trcstat_ptracer61_del2       =   0.0000000000000E+00
(PID.TID 0000.0001) %MON trcstat_ptracer62_max        =   9.9999997171807E-10
(PID.TID 0000.0001) %MON trcstat_ptracer62_min        =   9.9999997171807E-10
(PID.TID 0000.0001) %MON trcstat_ptracer62_mean       =   9.9999997171807E-10
(PID.TID 0000.0001) %MON trcstat_ptracer62_sd         =   0.0000000000000E+00
(PID.TID 0000.0001) %MON trcstat_ptracer62_del2       =   0.0000000000000E+00
(PID.TID 0000.0001) %MON trcstat_ptracer63_max        =   9.9999997171807E-10
(PID.TID 0000.0001) %MON trcstat_ptracer63_min        =   9.9999997171807E-10
(PID.TID 0000.0001) %MON trcstat_ptracer63_mean       =   9.9999997171807E-10
(PID.TID 0000.0001) %MON trcstat_ptracer63_sd         =   0.0000000000000E+00
(PID.TID 0000.0001) %MON trcstat_ptracer63_del2       =   0.0000000000000E+00
(PID.TID 0000.0001) %MON trcstat_ptracer64_max        =   9.9999997171807E-10
(PID.TID 0000.0001) %MON trcstat_ptracer64_min        =   9.9999997171807E-10
(PID.TID 0000.0001) %MON trcstat_ptracer64_mean       =   9.9999997171807E-10
(PID.TID 0000.0001) %MON trcstat_ptracer64_sd         =   0.0000000000000E+00
(PID.TID 0000.0001) %MON trcstat_ptracer64_del2       =   0.0000000000000E+00
(PID.TID 0000.0001) %MON trcstat_ptracer65_max        =   9.9999997171807E-10
(PID.TID 0000.0001) %MON trcstat_ptracer65_min        =   9.9999997171807E-10
(PID.TID 0000.0001) %MON trcstat_ptracer65_mean       =   9.9999997171807E-10
(PID.TID 0000.0001) %MON trcstat_ptracer65_sd         =   0.0000000000000E+00
(PID.TID 0000.0001) %MON trcstat_ptracer65_del2       =   0.0000000000000E+00
(PID.TID 0000.0001) %MON trcstat_ptracer66_max        =   9.9999997171807E-10
(PID.TID 0000.0001) %MON trcstat_ptracer66_min        =   9.9999997171807E-10
(PID.TID 0000.0001) %MON trcstat_ptracer66_mean       =   9.9999997171807E-10
(PID.TID 0000.0001) %MON trcstat_ptracer66_sd         =   0.0000000000000E+00
(PID.TID 0000.0001) %MON trcstat_ptracer66_del2       =   0.0000000000000E+00
(PID.TID 0000.0001) %MON trcstat_ptracer67_max        =   9.9999997171807E-10
(PID.TID 0000.0001) %MON trcstat_ptracer67_min        =   9.9999997171807E-10
(PID.TID 0000.0001) %MON trcstat_ptracer67_mean       =   9.9999997171807E-10
(PID.TID 0000.0001) %MON trcstat_ptracer67_sd         =   0.0000000000000E+00
(PID.TID 0000.0001) %MON trcstat_ptracer67_del2       =   0.0000000000000E+00
(PID.TID 0000.0001) %MON trcstat_ptracer68_max        =   9.9999997171807E-10
(PID.TID 0000.0001) %MON trcstat_ptracer68_min        =   9.9999997171807E-10
(PID.TID 0000.0001) %MON trcstat_ptracer68_mean       =   9.9999997171807E-10
(PID.TID 0000.0001) %MON trcstat_ptracer68_sd         =   0.0000000000000E+00
(PID.TID 0000.0001) %MON trcstat_ptracer68_del2       =   0.0000000000000E+00
(PID.TID 0000.0001) %MON trcstat_ptracer69_max        =   0.0000000000000E+00
(PID.TID 0000.0001) %MON trcstat_ptracer69_min        =   0.0000000000000E+00
(PID.TID 0000.0001) %MON trcstat_ptracer69_mean       =   0.0000000000000E+00
(PID.TID 0000.0001) %MON trcstat_ptracer69_sd         =   0.0000000000000E+00
(PID.TID 0000.0001) %MON trcstat_ptracer69_del2       =   0.0000000000000E+00
(PID.TID 0000.0001) %MON trcstat_ptracer70_max        =   0.0000000000000E+00
(PID.TID 0000.0001) %MON trcstat_ptracer70_min        =   0.0000000000000E+00
(PID.TID 0000.0001) %MON trcstat_ptracer70_mean       =   0.0000000000000E+00
(PID.TID 0000.0001) %MON trcstat_ptracer70_sd         =   0.0000000000000E+00
(PID.TID 0000.0001) %MON trcstat_ptracer70_del2       =   0.0000000000000E+00
(PID.TID 0000.0001) %MON trcstat_ptracer71_max        =   2.7267783880234E-01
(PID.TID 0000.0001) %MON trcstat_ptracer71_min        =   0.0000000000000E+00
(PID.TID 0000.0001) %MON trcstat_ptracer71_mean       =   3.3067342309609E-02
(PID.TID 0000.0001) %MON trcstat_ptracer71_sd         =   8.3679774951305E-02
(PID.TID 0000.0001) %MON trcstat_ptracer71_del2       =   0.0000000000000E+00
(PID.TID 0000.0001) %MON trcstat_ptracer72_max        =   3.0367041006684E-02
(PID.TID 0000.0001) %MON trcstat_ptracer72_min        =   0.0000000000000E+00
(PID.TID 0000.0001) %MON trcstat_ptracer72_mean       =   1.4939297063913E-02
(PID.TID 0000.0001) %MON trcstat_ptracer72_sd         =   1.1118076667108E-02
(PID.TID 0000.0001) %MON trcstat_ptracer72_del2       =   0.0000000000000E+00
(PID.TID 0000.0001) %MON trcstat_ptracer73_max        =   1.7042364561348E-05
(PID.TID 0000.0001) %MON trcstat_ptracer73_min        =   0.0000000000000E+00
(PID.TID 0000.0001) %MON trcstat_ptracer73_mean       =   2.0667088931327E-06
(PID.TID 0000.0001) %MON trcstat_ptracer73_sd         =   5.2299859300251E-06
(PID.TID 0000.0001) %MON trcstat_ptracer73_del2       =   0.0000000000000E+00
(PID.TID 0000.0001) %MON trcstat_ptracer74_max        =   1.8979401374963E-06
(PID.TID 0000.0001) %MON trcstat_ptracer74_min        =   0.0000000000000E+00
(PID.TID 0000.0001) %MON trcstat_ptracer74_mean       =   9.3370607446663E-07
(PID.TID 0000.0001) %MON trcstat_ptracer74_sd         =   6.9487981699102E-07
(PID.TID 0000.0001) %MON trcstat_ptracer74_del2       =   0.0000000000000E+00
(PID.TID 0000.0001) // =======================================================
(PID.TID 0000.0001) // End MONITOR ptracers field statistics
(PID.TID 0000.0001) // =======================================================
 EXTERNAL_FIELDS_LOAD, it=         0 : Reading new data, i0,i1=   12    1 (prev=   12    0 )
(PID.TID 0000.0001)  MDS_READ_FIELD: opening global file: ../input/input/wind_u_mon.bin
(PID.TID 0000.0001)  MDS_READ_FIELD: opening global file: ../input/input/wind_u_mon.bin
(PID.TID 0000.0001)  MDS_READ_FIELD: opening global file: ../input/input/wind_v_mon.bin
(PID.TID 0000.0001)  MDS_READ_FIELD: opening global file: ../input/input/wind_v_mon.bin
(PID.TID 0000.0001)  MDS_READ_FIELD: opening global file: ../input/input/loc1_temp_monsurf.bin
(PID.TID 0000.0001)  MDS_READ_FIELD: opening global file: ../input/input/loc1_temp_monsurf.bin
(PID.TID 0000.0001) S/R DARWIN_FIELDS_LOAD: Reading forcing data  0.000000000000E+00          0
(PID.TID 0000.0001)  MDS_READ_FIELD: opening global file: ../input/input/loc1_FeFlux_monsurf.bin
(PID.TID 0000.0001)  MDS_READ_FIELD: opening global file: ../input/input/loc1_FeFlux_monsurf.bin
(PID.TID 0000.0001)  MDS_READ_FIELD: opening global file: ../input/input/loc1_PAR_monsurf.bin
(PID.TID 0000.0001)  MDS_READ_FIELD: opening global file: ../input/input/loc1_PAR_monsurf.bin
(PID.TID 0000.0001) // =======================================================
(PID.TID 0000.0001) // Begin MONITOR dynamic field statistics
(PID.TID 0000.0001) // =======================================================
(PID.TID 0000.0001) %MON time_tsnumber                =                     1
(PID.TID 0000.0001) %MON time_secondsf                =   1.0800000000000E+04
(PID.TID 0000.0001) %MON dynstat_eta_max              =   0.0000000000000E+00
(PID.TID 0000.0001) %MON dynstat_eta_min              =   0.0000000000000E+00
(PID.TID 0000.0001) %MON dynstat_eta_mean             =   0.0000000000000E+00
(PID.TID 0000.0001) %MON dynstat_eta_sd               =   0.0000000000000E+00
(PID.TID 0000.0001) %MON dynstat_eta_del2             =   0.0000000000000E+00
(PID.TID 0000.0001) %MON dynstat_uvel_max             =   0.0000000000000E+00
(PID.TID 0000.0001) %MON dynstat_uvel_min             =   0.0000000000000E+00
(PID.TID 0000.0001) %MON dynstat_uvel_mean            =   0.0000000000000E+00
(PID.TID 0000.0001) %MON dynstat_uvel_sd              =   0.0000000000000E+00
(PID.TID 0000.0001) %MON dynstat_uvel_del2            =   0.0000000000000E+00
(PID.TID 0000.0001) %MON dynstat_vvel_max             =   0.0000000000000E+00
(PID.TID 0000.0001) %MON dynstat_vvel_min             =   0.0000000000000E+00
(PID.TID 0000.0001) %MON dynstat_vvel_mean            =   0.0000000000000E+00
(PID.TID 0000.0001) %MON dynstat_vvel_sd              =   0.0000000000000E+00
(PID.TID 0000.0001) %MON dynstat_vvel_del2            =   0.0000000000000E+00
(PID.TID 0000.0001) %MON dynstat_wvel_max             =   0.0000000000000E+00
(PID.TID 0000.0001) %MON dynstat_wvel_min             =   0.0000000000000E+00
(PID.TID 0000.0001) %MON dynstat_wvel_mean            =   0.0000000000000E+00
(PID.TID 0000.0001) %MON dynstat_wvel_sd              =   0.0000000000000E+00
(PID.TID 0000.0001) %MON dynstat_wvel_del2            =   0.0000000000000E+00
(PID.TID 0000.0001) %MON dynstat_theta_max            =   6.5044922881521E+00
(PID.TID 0000.0001) %MON dynstat_theta_min            =  -9.3889137359886E-01
(PID.TID 0000.0001) %MON dynstat_theta_mean           =   1.5606152272304E-01
(PID.TID 0000.0001) %MON dynstat_theta_sd             =   2.0854479480469E+00
(PID.TID 0000.0001) %MON dynstat_theta_del2           =   0.0000000000000E+00
(PID.TID 0000.0001) %MON dynstat_salt_max             =   3.5000000000000E+01
(PID.TID 0000.0001) %MON dynstat_salt_min             =   3.5000000000000E+01
(PID.TID 0000.0001) %MON dynstat_salt_mean            =   3.5000000000000E+01
(PID.TID 0000.0001) %MON dynstat_salt_sd              =   7.1054273576010E-15
(PID.TID 0000.0001) %MON dynstat_salt_del2            =   0.0000000000000E+00
(PID.TID 0000.0001) %MON dynstat_sst_max              =   6.5044922881521E+00
(PID.TID 0000.0001) %MON dynstat_sst_min              =   6.5044922881521E+00
(PID.TID 0000.0001) %MON dynstat_sst_mean             =   6.5044922881521E+00
(PID.TID 0000.0001) %MON dynstat_sst_sd               =   8.8817841970013E-16
(PID.TID 0000.0001) %MON dynstat_sst_del2             =   0.0000000000000E+00
(PID.TID 0000.0001) %MON dynstat_sss_max              =   3.5000000000000E+01
(PID.TID 0000.0001) %MON dynstat_sss_min              =   3.5000000000000E+01
(PID.TID 0000.0001) %MON dynstat_sss_mean             =   3.5000000000000E+01
(PID.TID 0000.0001) %MON dynstat_sss_sd               =   0.0000000000000E+00
(PID.TID 0000.0001) %MON dynstat_sss_del2             =   0.0000000000000E+00
(PID.TID 0000.0001) %MON forcing_qnet_max             =   0.0000000000000E+00
(PID.TID 0000.0001) %MON forcing_qnet_min             =   0.0000000000000E+00
(PID.TID 0000.0001) %MON forcing_qnet_mean            =   0.0000000000000E+00
(PID.TID 0000.0001) %MON forcing_qnet_sd              =   0.0000000000000E+00
(PID.TID 0000.0001) %MON forcing_qnet_del2            =   0.0000000000000E+00
(PID.TID 0000.0001) %MON forcing_qsw_max              =   0.0000000000000E+00
(PID.TID 0000.0001) %MON forcing_qsw_min              =   0.0000000000000E+00
(PID.TID 0000.0001) %MON forcing_qsw_mean             =   0.0000000000000E+00
(PID.TID 0000.0001) %MON forcing_qsw_sd               =   0.0000000000000E+00
(PID.TID 0000.0001) %MON forcing_qsw_del2             =   0.0000000000000E+00
(PID.TID 0000.0001) %MON forcing_empmr_max            =   0.0000000000000E+00
(PID.TID 0000.0001) %MON forcing_empmr_min            =   0.0000000000000E+00
(PID.TID 0000.0001) %MON forcing_empmr_mean           =   0.0000000000000E+00
(PID.TID 0000.0001) %MON forcing_empmr_sd             =   0.0000000000000E+00
(PID.TID 0000.0001) %MON forcing_empmr_del2           =   0.0000000000000E+00
(PID.TID 0000.0001) %MON forcing_fu_max               =   2.2785000205040E+00
(PID.TID 0000.0001) %MON forcing_fu_min               =   2.2785000205040E+00
(PID.TID 0000.0001) %MON forcing_fu_mean              =   2.2785000205040E+00
(PID.TID 0000.0001) %MON forcing_fu_sd                =   0.0000000000000E+00
(PID.TID 0000.0001) %MON forcing_fu_del2              =   0.0000000000000E+00
(PID.TID 0000.0001) %MON forcing_fv_max               =   1.1411664783955E+00
(PID.TID 0000.0001) %MON forcing_fv_min               =   1.1411664783955E+00
(PID.TID 0000.0001) %MON forcing_fv_mean              =   1.1411664783955E+00
(PID.TID 0000.0001) %MON forcing_fv_sd                =   0.0000000000000E+00
(PID.TID 0000.0001) %MON forcing_fv_del2              =   0.0000000000000E+00
(PID.TID 0000.0001) %MON advcfl_uvel_max              =   0.0000000000000E+00
(PID.TID 0000.0001) %MON advcfl_vvel_max              =   0.0000000000000E+00
(PID.TID 0000.0001) %MON advcfl_wvel_max              =   0.0000000000000E+00
(PID.TID 0000.0001) %MON advcfl_W_hf_max              =   0.0000000000000E+00
(PID.TID 0000.0001) %MON pe_b_mean                    =   0.0000000000000E+00
(PID.TID 0000.0001) %MON ke_max                       =   0.0000000000000E+00
(PID.TID 0000.0001) %MON ke_mean                      =   0.0000000000000E+00
(PID.TID 0000.0001) %MON ke_vol                       =   4.1199767883485E+13
(PID.TID 0000.0001) %MON vort_r_min                   =   0.0000000000000E+00
(PID.TID 0000.0001) %MON vort_r_max                   =   0.0000000000000E+00
(PID.TID 0000.0001) %MON vort_a_mean                  =  -4.5067801836625E-05
(PID.TID 0000.0001) %MON vort_a_sd                    =  -4.1359030627651E-25
(PID.TID 0000.0001) %MON vort_p_mean                  =  -4.5067801836625E-05
(PID.TID 0000.0001) %MON vort_p_sd                    =   0.0000000000000E+00
(PID.TID 0000.0001) %MON surfExpan_theta_mean         =   0.0000000000000E+00
(PID.TID 0000.0001) %MON surfExpan_salt_mean          =   0.0000000000000E+00
(PID.TID 0000.0001) // =======================================================
(PID.TID 0000.0001) // End MONITOR dynamic field statistics
(PID.TID 0000.0001) // =======================================================
(PID.TID 0000.0001) // =======================================================
(PID.TID 0000.0001) // Begin MONITOR ptracer field statistics
(PID.TID 0000.0001) // =======================================================
(PID.TID 0000.0001) %MON trcstat_ptracer01_max        =   2.1623998992289E+03
(PID.TID 0000.0001) %MON trcstat_ptracer01_min        =   2.0886366621436E+03
(PID.TID 0000.0001) %MON trcstat_ptracer01_mean       =   2.1557233177720E+03
(PID.TID 0000.0001) %MON trcstat_ptracer01_sd         =   1.1604915722724E+01
(PID.TID 0000.0001) %MON trcstat_ptracer01_del2       =   0.0000000000000E+00
(PID.TID 0000.0001) %MON trcstat_ptracer02_max        =   1.5341574218063E+01
(PID.TID 0000.0001) %MON trcstat_ptracer02_min        =   1.1869083136844E+01
(PID.TID 0000.0001) %MON trcstat_ptracer02_mean       =   1.4471659182794E+01
(PID.TID 0000.0001) %MON trcstat_ptracer02_sd         =   9.1975572290290E-01
(PID.TID 0000.0001) %MON trcstat_ptracer02_del2       =   0.0000000000000E+00
(PID.TID 0000.0001) %MON trcstat_ptracer03_max        =   3.7940225034052E-02
(PID.TID 0000.0001) %MON trcstat_ptracer03_min        =   2.9788837297459E-13
(PID.TID 0000.0001) %MON trcstat_ptracer03_mean       =   7.7996286850422E-03
(PID.TID 0000.0001) %MON trcstat_ptracer03_sd         =   1.0788389017969E-02
(PID.TID 0000.0001) %MON trcstat_ptracer03_del2       =   0.0000000000000E+00
(PID.TID 0000.0001) %MON trcstat_ptracer04_max        =   1.9507699423119E-03
(PID.TID 0000.0001) %MON trcstat_ptracer04_min        =   5.9888533982711E-12
(PID.TID 0000.0001) %MON trcstat_ptracer04_mean       =   3.2069105228694E-04
(PID.TID 0000.0001) %MON trcstat_ptracer04_sd         =   4.6191670169187E-04
(PID.TID 0000.0001) %MON trcstat_ptracer04_del2       =   0.0000000000000E+00
(PID.TID 0000.0001) %MON trcstat_ptracer05_max        =   9.1627624670265E-04
(PID.TID 0000.0001) %MON trcstat_ptracer05_min        =   5.9696572765758E-14
(PID.TID 0000.0001) %MON trcstat_ptracer05_mean       =   5.7980387110560E-04
(PID.TID 0000.0001) %MON trcstat_ptracer05_sd         =   3.7871036793680E-04
(PID.TID 0000.0001) %MON trcstat_ptracer05_del2       =   0.0000000000000E+00
(PID.TID 0000.0001) %MON trcstat_ptracer06_max        =   6.2034196444962E-09
(PID.TID 0000.0001) %MON trcstat_ptracer06_min        =   5.7922870232455E-09
(PID.TID 0000.0001) %MON trcstat_ptracer06_mean       =   6.1245179013963E-09
(PID.TID 0000.0001) %MON trcstat_ptracer06_sd         =   1.1155242471954E-10
(PID.TID 0000.0001) %MON trcstat_ptracer06_del2       =   0.0000000000000E+00
(PID.TID 0000.0001) %MON trcstat_ptracer07_max        =   6.2748038709727E-09
(PID.TID 0000.0001) %MON trcstat_ptracer07_min        =   5.9653695443567E-09
(PID.TID 0000.0001) %MON trcstat_ptracer07_mean       =   6.2171732086931E-09
(PID.TID 0000.0001) %MON trcstat_ptracer07_sd         =   8.4322738479287E-11
(PID.TID 0000.0001) %MON trcstat_ptracer07_del2       =   0.0000000000000E+00
(PID.TID 0000.0001) %MON trcstat_ptracer08_max        =   6.3369057770229E-09
(PID.TID 0000.0001) %MON trcstat_ptracer08_min        =   6.1040536454452E-09
(PID.TID 0000.0001) %MON trcstat_ptracer08_mean       =   6.2948941069180E-09
(PID.TID 0000.0001) %MON trcstat_ptracer08_sd         =   6.3300706444465E-11
(PID.TID 0000.0001) %MON trcstat_ptracer08_del2       =   0.0000000000000E+00
(PID.TID 0000.0001) %MON trcstat_ptracer09_max        =   6.3917731372621E-09
(PID.TID 0000.0001) %MON trcstat_ptracer09_min        =   6.2183655724096E-09
(PID.TID 0000.0001) %MON trcstat_ptracer09_mean       =   6.3612977225394E-09
(PID.TID 0000.0001) %MON trcstat_ptracer09_sd         =   4.7106419749424E-11
(PID.TID 0000.0001) %MON trcstat_ptracer09_del2       =   0.0000000000000E+00
(PID.TID 0000.0001) %MON trcstat_ptracer10_max        =   6.4374579675952E-09
(PID.TID 0000.0001) %MON trcstat_ptracer10_min        =   6.3093370633320E-09
(PID.TID 0000.0001) %MON trcstat_ptracer10_mean       =   6.4155278300116E-09
(PID.TID 0000.0001) %MON trcstat_ptracer10_sd         =   3.4723525435861E-11
(PID.TID 0000.0001) %MON trcstat_ptracer10_del2       =   0.0000000000000E+00
(PID.TID 0000.0001) %MON trcstat_ptracer11_max        =   6.4744143265024E-09
(PID.TID 0000.0001) %MON trcstat_ptracer11_min        =   6.3803204208300E-09
(PID.TID 0000.0001) %MON trcstat_ptracer11_mean       =   6.4587141423470E-09
(PID.TID 0000.0001) %MON trcstat_ptracer11_sd         =   2.5417936168650E-11
(PID.TID 0000.0001) %MON trcstat_ptracer11_del2       =   0.0000000000000E+00
(PID.TID 0000.0001) %MON trcstat_ptracer12_max        =   6.5042160506076E-09
(PID.TID 0000.0001) %MON trcstat_ptracer12_min        =   6.4355183889334E-09
(PID.TID 0000.0001) %MON trcstat_ptracer12_mean       =   6.4930334812654E-09
(PID.TID 0000.0001) %MON trcstat_ptracer12_sd         =   1.8491467057234E-11
(PID.TID 0000.0001) %MON trcstat_ptracer12_del2       =   0.0000000000000E+00
(PID.TID 0000.0001) %MON trcstat_ptracer13_max        =   6.5281666352006E-09
(PID.TID 0000.0001) %MON trcstat_ptracer13_min        =   6.4783823257376E-09
(PID.TID 0000.0001) %MON trcstat_ptracer13_mean       =   6.5202600873510E-09
(PID.TID 0000.0001) %MON trcstat_ptracer13_sd         =   1.3343374318951E-11
(PID.TID 0000.0001) %MON trcstat_ptracer13_del2       =   0.0000000000000E+00
(PID.TID 0000.0001) %MON trcstat_ptracer14_max        =   6.5473899352641E-09
(PID.TID 0000.0001) %MON trcstat_ptracer14_min        =   6.5114799935272E-09
(PID.TID 0000.0001) %MON trcstat_ptracer14_mean       =   6.5418095206458E-09
(PID.TID 0000.0001) %MON trcstat_ptracer14_sd         =   9.5323562546585E-12
(PID.TID 0000.0001) %MON trcstat_ptracer14_del2       =   0.0000000000000E+00
(PID.TID 0000.0001) %MON trcstat_ptracer15_max        =   6.5749822054044E-09
(PID.TID 0000.0001) %MON trcstat_ptracer15_min        =   6.5568037781943E-09
(PID.TID 0000.0001) %MON trcstat_ptracer15_mean       =   6.5721893955715E-09
(PID.TID 0000.0001) %MON trcstat_ptracer15_sd         =   4.6707245860645E-12
(PID.TID 0000.0001) %MON trcstat_ptracer15_del2       =   0.0000000000000E+00
(PID.TID 0000.0001) %MON trcstat_ptracer16_max        =   6.5892728535541E-09
(PID.TID 0000.0001) %MON trcstat_ptracer16_min        =   6.5719943209206E-09
(PID.TID 0000.0001) %MON trcstat_ptracer16_mean       =   6.5826484560557E-09
(PID.TID 0000.0001) %MON trcstat_ptracer16_sd         =   3.2044357306594E-12
(PID.TID 0000.0001) %MON trcstat_ptracer16_del2       =   0.0000000000000E+00
(PID.TID 0000.0001) %MON trcstat_ptracer17_max        =   6.6009501752479E-09
(PID.TID 0000.0001) %MON trcstat_ptracer17_min        =   6.5829723313279E-09
(PID.TID 0000.0001) %MON trcstat_ptracer17_mean       =   6.5907785068454E-09
(PID.TID 0000.0001) %MON trcstat_ptracer17_sd         =   2.2202992038217E-12
(PID.TID 0000.0001) %MON trcstat_ptracer17_del2       =   0.0000000000000E+00
(PID.TID 0000.0001) %MON trcstat_ptracer18_max        =   6.6098095775652E-09
(PID.TID 0000.0001) %MON trcstat_ptracer18_min        =   6.5836507882189E-09
(PID.TID 0000.0001) %MON trcstat_ptracer18_mean       =   6.5970454461049E-09
(PID.TID 0000.0001) %MON trcstat_ptracer18_sd         =   1.7160303985955E-12
(PID.TID 0000.0001) %MON trcstat_ptracer18_del2       =   0.0000000000000E+00
(PID.TID 0000.0001) %MON trcstat_ptracer19_max        =   6.6164503984556E-09
(PID.TID 0000.0001) %MON trcstat_ptracer19_min        =   6.5795977278144E-09
(PID.TID 0000.0001) %MON trcstat_ptracer19_mean       =   6.6018231722203E-09
(PID.TID 0000.0001) %MON trcstat_ptracer19_sd         =   1.7459422467120E-12
(PID.TID 0000.0001) %MON trcstat_ptracer19_del2       =   0.0000000000000E+00
(PID.TID 0000.0001) %MON trcstat_ptracer20_max        =   6.6213344302931E-09
(PID.TID 0000.0001) %MON trcstat_ptracer20_min        =   6.5705088968209E-09
(PID.TID 0000.0001) %MON trcstat_ptracer20_mean       =   6.6054121952722E-09
(PID.TID 0000.0001) %MON trcstat_ptracer20_sd         =   2.2428895222989E-12
(PID.TID 0000.0001) %MON trcstat_ptracer20_del2       =   0.0000000000000E+00
(PID.TID 0000.0001) %MON trcstat_ptracer21_max        =   6.6191882244680E-09
(PID.TID 0000.0001) %MON trcstat_ptracer21_min        =   6.6165688855097E-09
(PID.TID 0000.0001) %MON trcstat_ptracer21_mean       =   6.6188253838241E-09
(PID.TID 0000.0001) %MON trcstat_ptracer21_sd         =   7.1562312208294E-13
(PID.TID 0000.0001) %MON trcstat_ptracer21_del2       =   0.0000000000000E+00
(PID.TID 0000.0001) %MON trcstat_ptracer22_max        =   8.5008568663222E-10
(PID.TID 0000.0001) %MON trcstat_ptracer22_min        =   6.7258439961462E-10
(PID.TID 0000.0001) %MON trcstat_ptracer22_mean       =   7.0647917205794E-10
(PID.TID 0000.0001) %MON trcstat_ptracer22_sd         =   4.7964363185992E-11
(PID.TID 0000.0001) %MON trcstat_ptracer22_del2       =   0.0000000000000E+00
(PID.TID 0000.0001) %MON trcstat_ptracer23_max        =   7.7612847901045E-10
(PID.TID 0000.0001) %MON trcstat_ptracer23_min        =   6.4194739254314E-10
(PID.TID 0000.0001) %MON trcstat_ptracer23_mean       =   6.6673485115147E-10
(PID.TID 0000.0001) %MON trcstat_ptracer23_sd         =   3.6341233129157E-11
(PID.TID 0000.0001) %MON trcstat_ptracer23_del2       =   0.0000000000000E+00
(PID.TID 0000.0001) %MON trcstat_ptracer24_max        =   7.1638513996360E-10
(PID.TID 0000.0001) %MON trcstat_ptracer24_min        =   6.1529421398080E-10
(PID.TID 0000.0001) %MON trcstat_ptracer24_mean       =   6.3338816718209E-10
(PID.TID 0000.0001) %MON trcstat_ptracer24_sd         =   2.7346292386116E-11
(PID.TID 0000.0001) %MON trcstat_ptracer24_del2       =   0.0000000000000E+00
(PID.TID 0000.0001) %MON trcstat_ptracer25_max        =   6.6747202733672E-10
(PID.TID 0000.0001) %MON trcstat_ptracer25_min        =   5.9174599070221E-10
(PID.TID 0000.0001) %MON trcstat_ptracer25_mean       =   6.0491650879894E-10
(PID.TID 0000.0001) %MON trcstat_ptracer25_sd         =   2.0472939770105E-11
(PID.TID 0000.0001) %MON trcstat_ptracer25_del2       =   0.0000000000000E+00
(PID.TID 0000.0001) %MON trcstat_ptracer26_max        =   6.2822422736461E-10
(PID.TID 0000.0001) %MON trcstat_ptracer26_min        =   5.7213876738326E-10
(PID.TID 0000.0001) %MON trcstat_ptracer26_mean       =   5.8164670349793E-10
(PID.TID 0000.0001) %MON trcstat_ptracer26_sd         =   1.5165929717889E-11
(PID.TID 0000.0001) %MON trcstat_ptracer26_del2       =   0.0000000000000E+00
(PID.TID 0000.0001) %MON trcstat_ptracer27_max        =   5.9758156545796E-10
(PID.TID 0000.0001) %MON trcstat_ptracer27_min        =   5.5627766913982E-10
(PID.TID 0000.0001) %MON trcstat_ptracer27_mean       =   5.6311594659386E-10
(PID.TID 0000.0001) %MON trcstat_ptracer27_sd         =   1.1173801339356E-11
(PID.TID 0000.0001) %MON trcstat_ptracer27_del2       =   0.0000000000000E+00
(PID.TID 0000.0001) %MON trcstat_ptracer28_max        =   5.7372934403086E-10
(PID.TID 0000.0001) %MON trcstat_ptracer28_min        =   5.4348722960971E-10
(PID.TID 0000.0001) %MON trcstat_ptracer28_mean       =   5.4838579541668E-10
(PID.TID 0000.0001) %MON trcstat_ptracer28_sd         =   8.1866789691992E-12
(PID.TID 0000.0001) %MON trcstat_ptracer28_del2       =   0.0000000000000E+00
(PID.TID 0000.0001) %MON trcstat_ptracer29_max        =   5.5520811302527E-10
(PID.TID 0000.0001) %MON trcstat_ptracer29_min        =   5.3320800875435E-10
(PID.TID 0000.0001) %MON trcstat_ptracer29_mean       =   5.3669972658030E-10
(PID.TID 0000.0001) %MON trcstat_ptracer29_sd         =   5.9591474641604E-12
(PID.TID 0000.0001) %MON trcstat_ptracer29_del2       =   0.0000000000000E+00
(PID.TID 0000.0001) %MON trcstat_ptracer30_max        =   5.4085189774431E-10
(PID.TID 0000.0001) %MON trcstat_ptracer30_min        =   5.2497823771227E-10
(PID.TID 0000.0001) %MON trcstat_ptracer30_mean       =   5.2745031308076E-10
(PID.TID 0000.0001) %MON trcstat_ptracer30_sd         =   4.3012405449678E-12
(PID.TID 0000.0001) %MON trcstat_ptracer30_del2       =   0.0000000000000E+00
(PID.TID 0000.0001) %MON trcstat_ptracer31_max        =   5.2117310754968E-10
(PID.TID 0000.0001) %MON trcstat_ptracer31_min        =   5.1321463392997E-10
(PID.TID 0000.0001) %MON trcstat_ptracer31_mean       =   5.1441248308359E-10
(PID.TID 0000.0001) %MON trcstat_ptracer31_sd         =   2.1532292806141E-12
(PID.TID 0000.0001) %MON trcstat_ptracer31_del2       =   0.0000000000000E+00
(PID.TID 0000.0001) %MON trcstat_ptracer32_max        =   5.1457920951591E-10
(PID.TID 0000.0001) %MON trcstat_ptracer32_min        =   5.0911283310687E-10
(PID.TID 0000.0001) %MON trcstat_ptracer32_mean       =   5.0992311740879E-10
(PID.TID 0000.0001) %MON trcstat_ptracer32_sd         =   1.4745425100885E-12
(PID.TID 0000.0001) %MON trcstat_ptracer32_del2       =   0.0000000000000E+00
(PID.TID 0000.0001) %MON trcstat_ptracer33_max        =   5.0953231227624E-10
(PID.TID 0000.0001) %MON trcstat_ptracer33_min        =   5.0590309036149E-10
(PID.TID 0000.0001) %MON trcstat_ptracer33_mean       =   5.0643343265874E-10
(PID.TID 0000.0001) %MON trcstat_ptracer33_sd         =   9.7398017641913E-13
(PID.TID 0000.0001) %MON trcstat_ptracer33_del2       =   0.0000000000000E+00
(PID.TID 0000.0001) %MON trcstat_ptracer34_max        =   5.0569639155170E-10
(PID.TID 0000.0001) %MON trcstat_ptracer34_min        =   5.0308307562898E-10
(PID.TID 0000.0001) %MON trcstat_ptracer34_mean       =   5.0374345015290E-10
(PID.TID 0000.0001) %MON trcstat_ptracer34_sd         =   6.1123450295655E-13
(PID.TID 0000.0001) %MON trcstat_ptracer34_del2       =   0.0000000000000E+00
(PID.TID 0000.0001) %MON trcstat_ptracer35_max        =   5.0281126527722E-10
(PID.TID 0000.0001) %MON trcstat_ptracer35_min        =   4.9939684080809E-10
(PID.TID 0000.0001) %MON trcstat_ptracer35_mean       =   5.0169267984428E-10
(PID.TID 0000.0001) %MON trcstat_ptracer35_sd         =   3.6797804839329E-13
(PID.TID 0000.0001) %MON trcstat_ptracer35_del2       =   0.0000000000000E+00
(PID.TID 0000.0001) %MON trcstat_ptracer36_max        =   5.0067375162650E-10
(PID.TID 0000.0001) %MON trcstat_ptracer36_min        =   4.9620879775767E-10
(PID.TID 0000.0001) %MON trcstat_ptracer36_mean       =   5.0015213186329E-10
(PID.TID 0000.0001) %MON trcstat_ptracer36_sd         =   2.6445823743018E-13
(PID.TID 0000.0001) %MON trcstat_ptracer36_del2       =   0.0000000000000E+00
(PID.TID 0000.0001) %MON trcstat_ptracer37_max        =   4.9956135345586E-10
(PID.TID 0000.0001) %MON trcstat_ptracer37_min        =   4.9936366750544E-10
(PID.TID 0000.0001) %MON trcstat_ptracer37_mean       =   4.9953396925752E-10
(PID.TID 0000.0001) %MON trcstat_ptracer37_sd         =   5.4009289856460E-14
(PID.TID 0000.0001) %MON trcstat_ptracer37_del2       =   0.0000000000000E+00
(PID.TID 0000.0001) %MON trcstat_ptracer38_max        =   3.8870711240841E-14
(PID.TID 0000.0001) %MON trcstat_ptracer38_min        =   2.9925108748562E-14
(PID.TID 0000.0001) %MON trcstat_ptracer38_mean       =   3.4785496085575E-14
(PID.TID 0000.0001) %MON trcstat_ptracer38_sd         =   3.1554927725949E-15
(PID.TID 0000.0001) %MON trcstat_ptracer38_del2       =   0.0000000000000E+00
(PID.TID 0000.0001) %MON trcstat_ptracer39_max        =   3.7351176174004E-14
(PID.TID 0000.0001) %MON trcstat_ptracer39_min        =   2.9925096752839E-14
(PID.TID 0000.0001) %MON trcstat_ptracer39_mean       =   3.3937692843915E-14
(PID.TID 0000.0001) %MON trcstat_ptracer39_sd         =   2.6081789875136E-15
(PID.TID 0000.0001) %MON trcstat_ptracer39_del2       =   0.0000000000000E+00
(PID.TID 0000.0001) %MON trcstat_ptracer40_max        =   3.6062795412179E-14
(PID.TID 0000.0001) %MON trcstat_ptracer40_min        =   2.9925088616876E-14
(PID.TID 0000.0001) %MON trcstat_ptracer40_mean       =   3.3227025451612E-14
(PID.TID 0000.0001) %MON trcstat_ptracer40_sd         =   2.1485034596646E-15
(PID.TID 0000.0001) %MON trcstat_ptracer40_del2       =   0.0000000000000E+00
(PID.TID 0000.0001) %MON trcstat_ptracer41_max        =   3.4980513896285E-14
(PID.TID 0000.0001) %MON trcstat_ptracer41_min        =   2.9925083155356E-14
(PID.TID 0000.0001) %MON trcstat_ptracer41_mean       =   3.2633667513322E-14
(PID.TID 0000.0001) %MON trcstat_ptracer41_sd         =   1.7641586768277E-15
(PID.TID 0000.0001) %MON trcstat_ptracer41_del2       =   0.0000000000000E+00
(PID.TID 0000.0001) %MON trcstat_ptracer42_max        =   3.4070384131471E-14
(PID.TID 0000.0001) %MON trcstat_ptracer42_min        =   2.9925079533205E-14
(PID.TID 0000.0001) %MON trcstat_ptracer42_mean       =   3.2138713338337E-14
(PID.TID 0000.0001) %MON trcstat_ptracer42_sd         =   1.4431399296117E-15
(PID.TID 0000.0001) %MON trcstat_ptracer42_del2       =   0.0000000000000E+00
(PID.TID 0000.0001) %MON trcstat_ptracer43_max        =   3.3308528103172E-14
(PID.TID 0000.0001) %MON trcstat_ptracer43_min        =   2.9925077172420E-14
(PID.TID 0000.0001) %MON trcstat_ptracer43_mean       =   3.1726716905429E-14
(PID.TID 0000.0001) %MON trcstat_ptracer43_sd         =   1.1756267784533E-15
(PID.TID 0000.0001) %MON trcstat_ptracer43_del2       =   0.0000000000000E+00
(PID.TID 0000.0001) %MON trcstat_ptracer44_max        =   3.2673472707791E-14
(PID.TID 0000.0001) %MON trcstat_ptracer44_min        =   2.9925075670177E-14
(PID.TID 0000.0001) %MON trcstat_ptracer44_mean       =   3.1384838715367E-14
(PID.TID 0000.0001) %MON trcstat_ptracer44_sd         =   9.5342720703094E-16
(PID.TID 0000.0001) %MON trcstat_ptracer44_del2       =   0.0000000000000E+00
(PID.TID 0000.0001) %MON trcstat_ptracer45_max        =   3.2146375772615E-14
(PID.TID 0000.0001) %MON trcstat_ptracer45_min        =   2.9925074742835E-14
(PID.TID 0000.0001) %MON trcstat_ptracer45_mean       =   3.1102051846448E-14
(PID.TID 0000.0001) %MON trcstat_ptracer45_sd         =   7.6946713413637E-16
(PID.TID 0000.0001) %MON trcstat_ptracer45_del2       =   0.0000000000000E+00
(PID.TID 0000.0001) %MON trcstat_ptracer46_max        =   3.1710608674197E-14
(PID.TID 0000.0001) %MON trcstat_ptracer46_min        =   2.9925074189638E-14
(PID.TID 0000.0001) %MON trcstat_ptracer46_mean       =   3.0868951423215E-14
(PID.TID 0000.0001) %MON trcstat_ptracer46_sd         =   6.1768601730081E-16
(PID.TID 0000.0001) %MON trcstat_ptracer46_del2       =   0.0000000000000E+00
(PID.TID 0000.0001) %MON trcstat_ptracer47_max        =   3.1057848376699E-14
(PID.TID 0000.0001) %MON trcstat_ptracer47_min        =   2.9925073674861E-14
(PID.TID 0000.0001) %MON trcstat_ptracer47_mean       =   3.0521107708683E-14
(PID.TID 0000.0001) %MON trcstat_ptracer47_sd         =   3.9080641694739E-16
(PID.TID 0000.0001) %MON trcstat_ptracer47_del2       =   0.0000000000000E+00
(PID.TID 0000.0001) %MON trcstat_ptracer48_max        =   3.0818130688461E-14
(PID.TID 0000.0001) %MON trcstat_ptracer48_min        =   2.9925073538406E-14
(PID.TID 0000.0001) %MON trcstat_ptracer48_mean       =   3.0393890235465E-14
(PID.TID 0000.0001) %MON trcstat_ptracer48_sd         =   3.0762459923710E-16
(PID.TID 0000.0001) %MON trcstat_ptracer48_del2       =   0.0000000000000E+00
(PID.TID 0000.0001) %MON trcstat_ptracer49_max        =   3.0623833000790E-14
(PID.TID 0000.0001) %MON trcstat_ptracer49_min        =   2.9925073407242E-14
(PID.TID 0000.0001) %MON trcstat_ptracer49_mean       =   3.0291062831769E-14
(PID.TID 0000.0001) %MON trcstat_ptracer49_sd         =   2.4024448380994E-16
(PID.TID 0000.0001) %MON trcstat_ptracer49_del2       =   0.0000000000000E+00
(PID.TID 0000.0001) %MON trcstat_ptracer50_max        =   3.0467462272869E-14
(PID.TID 0000.0001) %MON trcstat_ptracer50_min        =   2.9925073246880E-14
(PID.TID 0000.0001) %MON trcstat_ptracer50_mean       =   3.0208519025884E-14
(PID.TID 0000.0001) %MON trcstat_ptracer50_sd         =   1.8602120598718E-16
(PID.TID 0000.0001) %MON trcstat_ptracer50_del2       =   0.0000000000000E+00
(PID.TID 0000.0001) %MON trcstat_ptracer51_max        =   3.0342631328211E-14
(PID.TID 0000.0001) %MON trcstat_ptracer51_min        =   2.9925073035888E-14
(PID.TID 0000.0001) %MON trcstat_ptracer51_mean       =   3.0142768037564E-14
(PID.TID 0000.0001) %MON trcstat_ptracer51_sd         =   1.4274584349244E-16
(PID.TID 0000.0001) %MON trcstat_ptracer51_del2       =   0.0000000000000E+00
(PID.TID 0000.0001) %MON trcstat_ptracer52_max        =   3.0243761821778E-14
(PID.TID 0000.0001) %MON trcstat_ptracer52_min        =   2.9925072763263E-14
(PID.TID 0000.0001) %MON trcstat_ptracer52_mean       =   3.0090838242362E-14
(PID.TID 0000.0001) %MON trcstat_ptracer52_sd         =   1.0863531132021E-16
(PID.TID 0000.0001) %MON trcstat_ptracer52_del2       =   0.0000000000000E+00
(PID.TID 0000.0001) %MON trcstat_ptracer53_max        =   2.9973681529077E-14
(PID.TID 0000.0001) %MON trcstat_ptracer53_min        =   2.9961820371925E-14
(PID.TID 0000.0001) %MON trcstat_ptracer53_mean       =   2.9972038477159E-14
(PID.TID 0000.0001) %MON trcstat_ptracer53_sd         =   3.2405574261737E-18
(PID.TID 0000.0001) %MON trcstat_ptracer53_del2       =   0.0000000000000E+00
(PID.TID 0000.0001) %MON trcstat_ptracer54_max        =   1.2418996364300E-09
(PID.TID 0000.0001) %MON trcstat_ptracer54_min        =   9.9750205454334E-10
(PID.TID 0000.0001) %MON trcstat_ptracer54_mean       =   1.0054367240896E-09
(PID.TID 0000.0001) %MON trcstat_ptracer54_sd         =   4.2195635629182E-11
(PID.TID 0000.0001) %MON trcstat_ptracer54_del2       =   0.0000000000000E+00
(PID.TID 0000.0001) %MON trcstat_ptracer55_max        =   1.3873158291974E-09
(PID.TID 0000.0001) %MON trcstat_ptracer55_min        =   9.9750205454334E-10
(PID.TID 0000.0001) %MON trcstat_ptracer55_mean       =   1.0091770572239E-09
(PID.TID 0000.0001) %MON trcstat_ptracer55_sd         =   6.2727669041466E-11
(PID.TID 0000.0001) %MON trcstat_ptracer55_del2       =   0.0000000000000E+00
(PID.TID 0000.0001) %MON trcstat_ptracer56_max        =   1.2993234894854E-09
(PID.TID 0000.0001) %MON trcstat_ptracer56_min        =   9.9750205454334E-10
(PID.TID 0000.0001) %MON trcstat_ptracer56_mean       =   1.0072688782269E-09
(PID.TID 0000.0001) %MON trcstat_ptracer56_sd         =   5.1953152590976E-11
(PID.TID 0000.0001) %MON trcstat_ptracer56_del2       =   0.0000000000000E+00
(PID.TID 0000.0001) %MON trcstat_ptracer57_max        =   1.3486528659878E-09
(PID.TID 0000.0001) %MON trcstat_ptracer57_min        =   9.9750205454334E-10
(PID.TID 0000.0001) %MON trcstat_ptracer57_mean       =   1.0086567455728E-09
(PID.TID 0000.0001) %MON trcstat_ptracer57_sd         =   5.9443399773987E-11
(PID.TID 0000.0001) %MON trcstat_ptracer57_del2       =   0.0000000000000E+00
(PID.TID 0000.0001) %MON trcstat_ptracer58_max        =   1.2662046012169E-09
(PID.TID 0000.0001) %MON trcstat_ptracer58_min        =   9.9750205454334E-10
(PID.TID 0000.0001) %MON trcstat_ptracer58_mean       =   1.0063046055356E-09
(PID.TID 0000.0001) %MON trcstat_ptracer58_sd         =   4.6770471060090E-11
(PID.TID 0000.0001) %MON trcstat_ptracer58_del2       =   0.0000000000000E+00
(PID.TID 0000.0001) %MON trcstat_ptracer59_max        =   1.2022193142112E-09
(PID.TID 0000.0001) %MON trcstat_ptracer59_min        =   9.9750205454334E-10
(PID.TID 0000.0001) %MON trcstat_ptracer59_mean       =   1.0043663436108E-09
(PID.TID 0000.0001) %MON trcstat_ptracer59_sd         =   3.6414543893712E-11
(PID.TID 0000.0001) %MON trcstat_ptracer59_del2       =   0.0000000000000E+00
(PID.TID 0000.0001) %MON trcstat_ptracer60_max        =   1.1523083728940E-09
(PID.TID 0000.0001) %MON trcstat_ptracer60_min        =   9.9750205454334E-10
(PID.TID 0000.0001) %MON trcstat_ptracer60_mean       =   1.0027126573481E-09
(PID.TID 0000.0001) %MON trcstat_ptracer60_sd         =   2.7632238467313E-11
(PID.TID 0000.0001) %MON trcstat_ptracer60_del2       =   0.0000000000000E+00
(PID.TID 0000.0001) %MON trcstat_ptracer61_max        =   1.1137408686415E-09
(PID.TID 0000.0001) %MON trcstat_ptracer61_min        =   9.9750205454334E-10
(PID.TID 0000.0001) %MON trcstat_ptracer61_mean       =   1.0014237858748E-09
(PID.TID 0000.0001) %MON trcstat_ptracer61_sd         =   2.0788736289203E-11
(PID.TID 0000.0001) %MON trcstat_ptracer61_del2       =   0.0000000000000E+00
(PID.TID 0000.0001) %MON trcstat_ptracer62_max        =   1.0839747112759E-09
(PID.TID 0000.0001) %MON trcstat_ptracer62_min        =   9.9750205454334E-10
(PID.TID 0000.0001) %MON trcstat_ptracer62_mean       =   1.0004242016437E-09
(PID.TID 0000.0001) %MON trcstat_ptracer62_sd         =   1.5480445516306E-11
(PID.TID 0000.0001) %MON trcstat_ptracer62_del2       =   0.0000000000000E+00
(PID.TID 0000.0001) %MON trcstat_ptracer63_max        =   1.0434797850298E-09
(PID.TID 0000.0001) %MON trcstat_ptracer63_min        =   9.9750205454334E-10
(PID.TID 0000.0001) %MON trcstat_ptracer63_mean       =   9.9906759998085E-10
(PID.TID 0000.0001) %MON trcstat_ptracer63_sd         =   8.2678824083616E-12
(PID.TID 0000.0001) %MON trcstat_ptracer63_del2       =   0.0000000000000E+00
(PID.TID 0000.0001) %MON trcstat_ptracer64_max        =   1.0299123473713E-09
(PID.TID 0000.0001) %MON trcstat_ptracer64_min        =   9.9750205454334E-10
(PID.TID 0000.0001) %MON trcstat_ptracer64_mean       =   9.9860590953627E-10
(PID.TID 0000.0001) %MON trcstat_ptracer64_sd         =   5.8094879948137E-12
(PID.TID 0000.0001) %MON trcstat_ptracer64_del2       =   0.0000000000000E+00
(PID.TID 0000.0001) %MON trcstat_ptracer65_max        =   1.0195522947351E-09
(PID.TID 0000.0001) %MON trcstat_ptracer65_min        =   9.9750205454334E-10
(PID.TID 0000.0001) %MON trcstat_ptracer65_mean       =   9.9825320215251E-10
(PID.TID 0000.0001) %MON trcstat_ptracer65_sd         =   3.9277226437540E-12
(PID.TID 0000.0001) %MON trcstat_ptracer65_del2       =   0.0000000000000E+00
(PID.TID 0000.0001) %MON trcstat_ptracer66_max        =   1.0116941692052E-09
(PID.TID 0000.0001) %MON trcstat_ptracer66_min        =   9.9750205454334E-10
(PID.TID 0000.0001) %MON trcstat_ptracer66_mean       =   9.9798559857967E-10
(PID.TID 0000.0001) %MON trcstat_ptracer66_sd         =   2.4987637478703E-12
(PID.TID 0000.0001) %MON trcstat_ptracer66_del2       =   0.0000000000000E+00
(PID.TID 0000.0001) %MON trcstat_ptracer67_max        =   1.0057914250225E-09
(PID.TID 0000.0001) %MON trcstat_ptracer67_min        =   9.9750205454334E-10
(PID.TID 0000.0001) %MON trcstat_ptracer67_mean       =   9.9778456006927E-10
(PID.TID 0000.0001) %MON trcstat_ptracer67_sd         =   1.4372110825354E-12
(PID.TID 0000.0001) %MON trcstat_ptracer67_del2       =   0.0000000000000E+00
(PID.TID 0000.0001) %MON trcstat_ptracer68_max        =   1.0014188349373E-09
(PID.TID 0000.0001) %MON trcstat_ptracer68_min        =   9.9237846720634E-10
(PID.TID 0000.0001) %MON trcstat_ptracer68_mean       =   9.9763564104036E-10
(PID.TID 0000.0001) %MON trcstat_ptracer68_sd         =   7.3438484049543E-13
(PID.TID 0000.0001) %MON trcstat_ptracer68_del2       =   0.0000000000000E+00
(PID.TID 0000.0001) %MON trcstat_ptracer69_max        =   1.5100502292594E-10
(PID.TID 0000.0001) %MON trcstat_ptracer69_min        =   1.5058020676584E-10
(PID.TID 0000.0001) %MON trcstat_ptracer69_mean       =   1.5065551473663E-10
(PID.TID 0000.0001) %MON trcstat_ptracer69_sd         =   8.6684379572000E-14
(PID.TID 0000.0001) %MON trcstat_ptracer69_del2       =   0.0000000000000E+00
(PID.TID 0000.0001) %MON trcstat_ptracer70_max        =   1.0268010002402E-10
(PID.TID 0000.0001) %MON trcstat_ptracer70_min        =   9.8402279505031E-11
(PID.TID 0000.0001) %MON trcstat_ptracer70_mean       =   1.0181998498817E-10
(PID.TID 0000.0001) %MON trcstat_ptracer70_sd         =   3.0909633100008E-13
(PID.TID 0000.0001) %MON trcstat_ptracer70_del2       =   0.0000000000000E+00
(PID.TID 0000.0001) %MON trcstat_ptracer71_max        =   2.7232914683110E-01
(PID.TID 0000.0001) %MON trcstat_ptracer71_min        =   1.1950088967328E-11
(PID.TID 0000.0001) %MON trcstat_ptracer71_mean       =   3.3027788300448E-02
(PID.TID 0000.0001) %MON trcstat_ptracer71_sd         =   8.3578115642591E-02
(PID.TID 0000.0001) %MON trcstat_ptracer71_del2       =   0.0000000000000E+00
(PID.TID 0000.0001) %MON trcstat_ptracer72_max        =   3.0300098351437E-02
(PID.TID 0000.0001) %MON trcstat_ptracer72_min        =   3.0493539855221E-08
(PID.TID 0000.0001) %MON trcstat_ptracer72_mean       =   1.4911601310853E-02
(PID.TID 0000.0001) %MON trcstat_ptracer72_sd         =   1.1090662519150E-02
(PID.TID 0000.0001) %MON trcstat_ptracer72_del2       =   0.0000000000000E+00
(PID.TID 0000.0001) %MON trcstat_ptracer73_max        =   1.7020572272340E-05
(PID.TID 0000.0001) %MON trcstat_ptracer73_min        =   6.8739550786058E-16
(PID.TID 0000.0001) %MON trcstat_ptracer73_mean       =   2.0642367675128E-06
(PID.TID 0000.0001) %MON trcstat_ptracer73_sd         =   5.2236322232361E-06
(PID.TID 0000.0001) %MON trcstat_ptracer73_del2       =   0.0000000000000E+00
(PID.TID 0000.0001) %MON trcstat_ptracer74_max        =   1.8937562210000E-06
(PID.TID 0000.0001) %MON trcstat_ptracer74_min        =   1.9058149846035E-12
(PID.TID 0000.0001) %MON trcstat_ptracer74_mean       =   9.3197508985891E-07
(PID.TID 0000.0001) %MON trcstat_ptracer74_sd         =   6.9316643269950E-07
(PID.TID 0000.0001) %MON trcstat_ptracer74_del2       =   0.0000000000000E+00
(PID.TID 0000.0001) // =======================================================
(PID.TID 0000.0001) // End MONITOR ptracers field statistics
(PID.TID 0000.0001) // =======================================================
(PID.TID 0000.0001) // =======================================================
(PID.TID 0000.0001) // Begin MONITOR dynamic field statistics
(PID.TID 0000.0001) // =======================================================
(PID.TID 0000.0001) %MON time_tsnumber                =                     2
(PID.TID 0000.0001) %MON time_secondsf                =   2.1600000000000E+04
(PID.TID 0000.0001) %MON dynstat_eta_max              =   0.0000000000000E+00
(PID.TID 0000.0001) %MON dynstat_eta_min              =   0.0000000000000E+00
(PID.TID 0000.0001) %MON dynstat_eta_mean             =   0.0000000000000E+00
(PID.TID 0000.0001) %MON dynstat_eta_sd               =   0.0000000000000E+00
(PID.TID 0000.0001) %MON dynstat_eta_del2             =   0.0000000000000E+00
(PID.TID 0000.0001) %MON dynstat_uvel_max             =   0.0000000000000E+00
(PID.TID 0000.0001) %MON dynstat_uvel_min             =   0.0000000000000E+00
(PID.TID 0000.0001) %MON dynstat_uvel_mean            =   0.0000000000000E+00
(PID.TID 0000.0001) %MON dynstat_uvel_sd              =   0.0000000000000E+00
(PID.TID 0000.0001) %MON dynstat_uvel_del2            =   0.0000000000000E+00
(PID.TID 0000.0001) %MON dynstat_vvel_max             =   0.0000000000000E+00
(PID.TID 0000.0001) %MON dynstat_vvel_min             =   0.0000000000000E+00
(PID.TID 0000.0001) %MON dynstat_vvel_mean            =   0.0000000000000E+00
(PID.TID 0000.0001) %MON dynstat_vvel_sd              =   0.0000000000000E+00
(PID.TID 0000.0001) %MON dynstat_vvel_del2            =   0.0000000000000E+00
(PID.TID 0000.0001) %MON dynstat_wvel_max             =   0.0000000000000E+00
(PID.TID 0000.0001) %MON dynstat_wvel_min             =   0.0000000000000E+00
(PID.TID 0000.0001) %MON dynstat_wvel_mean            =   0.0000000000000E+00
(PID.TID 0000.0001) %MON dynstat_wvel_sd              =   0.0000000000000E+00
(PID.TID 0000.0001) %MON dynstat_wvel_del2            =   0.0000000000000E+00
(PID.TID 0000.0001) %MON dynstat_theta_max            =   6.5021898417791E+00
(PID.TID 0000.0001) %MON dynstat_theta_min            =  -9.3888275713119E-01
(PID.TID 0000.0001) %MON dynstat_theta_mean           =   1.5608386202520E-01
(PID.TID 0000.0001) %MON dynstat_theta_sd             =   2.0855057882648E+00
(PID.TID 0000.0001) %MON dynstat_theta_del2           =   0.0000000000000E+00
(PID.TID 0000.0001) %MON dynstat_salt_max             =   3.5000000000000E+01
(PID.TID 0000.0001) %MON dynstat_salt_min             =   3.5000000000000E+01
(PID.TID 0000.0001) %MON dynstat_salt_mean            =   3.5000000000000E+01
(PID.TID 0000.0001) %MON dynstat_salt_sd              =   7.1054273576010E-15
(PID.TID 0000.0001) %MON dynstat_salt_del2            =   0.0000000000000E+00
(PID.TID 0000.0001) %MON dynstat_sst_max              =   6.5021898417791E+00
(PID.TID 0000.0001) %MON dynstat_sst_min              =   6.5021898417791E+00
(PID.TID 0000.0001) %MON dynstat_sst_mean             =   6.5021898417791E+00
(PID.TID 0000.0001) %MON dynstat_sst_sd               =   0.0000000000000E+00
(PID.TID 0000.0001) %MON dynstat_sst_del2             =   0.0000000000000E+00
(PID.TID 0000.0001) %MON dynstat_sss_max              =   3.5000000000000E+01
(PID.TID 0000.0001) %MON dynstat_sss_min              =   3.5000000000000E+01
(PID.TID 0000.0001) %MON dynstat_sss_mean             =   3.5000000000000E+01
(PID.TID 0000.0001) %MON dynstat_sss_sd               =   0.0000000000000E+00
(PID.TID 0000.0001) %MON dynstat_sss_del2             =   0.0000000000000E+00
(PID.TID 0000.0001) %MON forcing_qnet_max             =   0.0000000000000E+00
(PID.TID 0000.0001) %MON forcing_qnet_min             =   0.0000000000000E+00
(PID.TID 0000.0001) %MON forcing_qnet_mean            =   0.0000000000000E+00
(PID.TID 0000.0001) %MON forcing_qnet_sd              =   0.0000000000000E+00
(PID.TID 0000.0001) %MON forcing_qnet_del2            =   0.0000000000000E+00
(PID.TID 0000.0001) %MON forcing_qsw_max              =   0.0000000000000E+00
(PID.TID 0000.0001) %MON forcing_qsw_min              =   0.0000000000000E+00
(PID.TID 0000.0001) %MON forcing_qsw_mean             =   0.0000000000000E+00
(PID.TID 0000.0001) %MON forcing_qsw_sd               =   0.0000000000000E+00
(PID.TID 0000.0001) %MON forcing_qsw_del2             =   0.0000000000000E+00
(PID.TID 0000.0001) %MON forcing_empmr_max            =   0.0000000000000E+00
(PID.TID 0000.0001) %MON forcing_empmr_min            =   0.0000000000000E+00
(PID.TID 0000.0001) %MON forcing_empmr_mean           =   0.0000000000000E+00
(PID.TID 0000.0001) %MON forcing_empmr_sd             =   0.0000000000000E+00
(PID.TID 0000.0001) %MON forcing_empmr_del2           =   0.0000000000000E+00
(PID.TID 0000.0001) %MON forcing_fu_max               =   2.2750347450376E+00
(PID.TID 0000.0001) %MON forcing_fu_min               =   2.2750347450376E+00
(PID.TID 0000.0001) %MON forcing_fu_mean              =   2.2750347450376E+00
(PID.TID 0000.0001) %MON forcing_fu_sd                =   0.0000000000000E+00
(PID.TID 0000.0001) %MON forcing_fu_del2              =   0.0000000000000E+00
(PID.TID 0000.0001) %MON forcing_fv_max               =   1.1445845323304E+00
(PID.TID 0000.0001) %MON forcing_fv_min               =   1.1445845323304E+00
(PID.TID 0000.0001) %MON forcing_fv_mean              =   1.1445845323304E+00
(PID.TID 0000.0001) %MON forcing_fv_sd                =   0.0000000000000E+00
(PID.TID 0000.0001) %MON forcing_fv_del2              =   0.0000000000000E+00
(PID.TID 0000.0001) %MON advcfl_uvel_max              =   0.0000000000000E+00
(PID.TID 0000.0001) %MON advcfl_vvel_max              =   0.0000000000000E+00
(PID.TID 0000.0001) %MON advcfl_wvel_max              =   0.0000000000000E+00
(PID.TID 0000.0001) %MON advcfl_W_hf_max              =   0.0000000000000E+00
(PID.TID 0000.0001) %MON pe_b_mean                    =   0.0000000000000E+00
(PID.TID 0000.0001) %MON ke_max                       =   0.0000000000000E+00
(PID.TID 0000.0001) %MON ke_mean                      =   0.0000000000000E+00
(PID.TID 0000.0001) %MON ke_vol                       =   4.1199767883485E+13
(PID.TID 0000.0001) %MON vort_r_min                   =   0.0000000000000E+00
(PID.TID 0000.0001) %MON vort_r_max                   =   0.0000000000000E+00
(PID.TID 0000.0001) %MON vort_a_mean                  =  -4.5067801836625E-05
(PID.TID 0000.0001) %MON vort_a_sd                    =  -4.1359030627651E-25
(PID.TID 0000.0001) %MON vort_p_mean                  =  -4.5067801836625E-05
(PID.TID 0000.0001) %MON vort_p_sd                    =   0.0000000000000E+00
(PID.TID 0000.0001) %MON surfExpan_theta_mean         =   0.0000000000000E+00
(PID.TID 0000.0001) %MON surfExpan_salt_mean          =   0.0000000000000E+00
(PID.TID 0000.0001) // =======================================================
(PID.TID 0000.0001) // End MONITOR dynamic field statistics
(PID.TID 0000.0001) // =======================================================
(PID.TID 0000.0001) // =======================================================
(PID.TID 0000.0001) // Begin MONITOR ptracer field statistics
(PID.TID 0000.0001) // =======================================================
(PID.TID 0000.0001) %MON trcstat_ptracer01_max        =   2.1623998961147E+03
(PID.TID 0000.0001) %MON trcstat_ptracer01_min        =   2.0908348083020E+03
(PID.TID 0000.0001) %MON trcstat_ptracer01_mean       =   2.1557233177739E+03
(PID.TID 0000.0001) %MON trcstat_ptracer01_sd         =   1.1578675045943E+01
(PID.TID 0000.0001) %MON trcstat_ptracer01_del2       =   0.0000000000000E+00
(PID.TID 0000.0001) %MON trcstat_ptracer02_max        =   1.5341548029422E+01
(PID.TID 0000.0001) %MON trcstat_ptracer02_min        =   1.1875487400798E+01
(PID.TID 0000.0001) %MON trcstat_ptracer02_mean       =   1.4471756603804E+01
(PID.TID 0000.0001) %MON trcstat_ptracer02_sd         =   9.1962394353888E-01
(PID.TID 0000.0001) %MON trcstat_ptracer02_del2       =   0.0000000000000E+00
(PID.TID 0000.0001) %MON trcstat_ptracer03_max        =   3.7915515940478E-02
(PID.TID 0000.0001) %MON trcstat_ptracer03_min        =   1.0362750078470E-11
(PID.TID 0000.0001) %MON trcstat_ptracer03_mean       =   7.7813260955970E-03
(PID.TID 0000.0001) %MON trcstat_ptracer03_sd         =   1.0767424380741E-02
(PID.TID 0000.0001) %MON trcstat_ptracer03_del2       =   0.0000000000000E+00
(PID.TID 0000.0001) %MON trcstat_ptracer04_max        =   1.8088132635530E-03
(PID.TID 0000.0001) %MON trcstat_ptracer04_min        =   1.2809189357104E-10
(PID.TID 0000.0001) %MON trcstat_ptracer04_mean       =   3.0871838115146E-04
(PID.TID 0000.0001) %MON trcstat_ptracer04_sd         =   4.5018802556107E-04
(PID.TID 0000.0001) %MON trcstat_ptracer04_del2       =   0.0000000000000E+00
(PID.TID 0000.0001) %MON trcstat_ptracer05_max        =   9.1625936258624E-04
(PID.TID 0000.0001) %MON trcstat_ptracer05_min        =   1.8653977511132E-13
(PID.TID 0000.0001) %MON trcstat_ptracer05_mean       =   5.7980068745733E-04
(PID.TID 0000.0001) %MON trcstat_ptracer05_sd         =   3.7870797205246E-04
(PID.TID 0000.0001) %MON trcstat_ptracer05_del2       =   0.0000000000000E+00
(PID.TID 0000.0001) %MON trcstat_ptracer06_max        =   5.8312977042154E-09
(PID.TID 0000.0001) %MON trcstat_ptracer06_min        =   5.2164634594152E-09
(PID.TID 0000.0001) %MON trcstat_ptracer06_mean       =   5.6960804829610E-09
(PID.TID 0000.0001) %MON trcstat_ptracer06_sd         =   1.6764968751638E-10
(PID.TID 0000.0001) %MON trcstat_ptracer06_del2       =   0.0000000000000E+00
(PID.TID 0000.0001) %MON trcstat_ptracer07_max        =   5.9675928852695E-09
(PID.TID 0000.0001) %MON trcstat_ptracer07_min        =   5.4764529077175E-09
(PID.TID 0000.0001) %MON trcstat_ptracer07_mean       =   5.8644888631972E-09
(PID.TID 0000.0001) %MON trcstat_ptracer07_sd         =   1.3365509683879E-10
(PID.TID 0000.0001) %MON trcstat_ptracer07_del2       =   0.0000000000000E+00
(PID.TID 0000.0001) %MON trcstat_ptracer08_max        =   6.0842147522920E-09
(PID.TID 0000.0001) %MON trcstat_ptracer08_min        =   5.6984432033234E-09
(PID.TID 0000.0001) %MON trcstat_ptracer08_mean       =   6.0066322351266E-09
(PID.TID 0000.0001) %MON trcstat_ptracer08_sd         =   1.0456853976503E-10
(PID.TID 0000.0001) %MON trcstat_ptracer08_del2       =   0.0000000000000E+00
(PID.TID 0000.0001) %MON trcstat_ptracer09_max        =   6.1844552559052E-09
(PID.TID 0000.0001) %MON trcstat_ptracer09_min        =   5.8866568840278E-09
(PID.TID 0000.0001) %MON trcstat_ptracer09_mean       =   6.1267859489181E-09
(PID.TID 0000.0001) %MON trcstat_ptracer09_sd         =   8.0462013543764E-11
(PID.TID 0000.0001) %MON trcstat_ptracer09_del2       =   0.0000000000000E+00
(PID.TID 0000.0001) %MON trcstat_ptracer10_max        =   6.2679884715513E-09
(PID.TID 0000.0001) %MON trcstat_ptracer10_min        =   6.0414259760410E-09
(PID.TID 0000.0001) %MON trcstat_ptracer10_mean       =   6.2256571294532E-09
(PID.TID 0000.0001) %MON trcstat_ptracer10_sd         =   6.1004744201776E-11
(PID.TID 0000.0001) %MON trcstat_ptracer10_del2       =   0.0000000000000E+00
(PID.TID 0000.0001) %MON trcstat_ptracer11_max        =   6.3363853782598E-09
(PID.TID 0000.0001) %MON trcstat_ptracer11_min        =   6.1661872534775E-09
(PID.TID 0000.0001) %MON trcstat_ptracer11_mean       =   6.3056576228141E-09
(PID.TID 0000.0001) %MON trcstat_ptracer11_sd         =   4.5633263121818E-11
(PID.TID 0000.0001) %MON trcstat_ptracer11_del2       =   0.0000000000000E+00
(PID.TID 0000.0001) %MON trcstat_ptracer12_max        =   6.3921108395900E-09
(PID.TID 0000.0001) %MON trcstat_ptracer12_min        =   6.2657247666913E-09
(PID.TID 0000.0001) %MON trcstat_ptracer12_mean       =   6.3700243704198E-09
(PID.TID 0000.0001) %MON trcstat_ptracer12_sd         =   3.3760084468153E-11
(PID.TID 0000.0001) %MON trcstat_ptracer12_del2       =   0.0000000000000E+00
(PID.TID 0000.0001) %MON trcstat_ptracer13_max        =   6.4372906724162E-09
(PID.TID 0000.0001) %MON trcstat_ptracer13_min        =   6.3443508397578E-09
(PID.TID 0000.0001) %MON trcstat_ptracer13_mean       =   6.4215892317135E-09
(PID.TID 0000.0001) %MON trcstat_ptracer13_sd         =   2.4678840950239E-11
(PID.TID 0000.0001) %MON trcstat_ptracer13_del2       =   0.0000000000000E+00
(PID.TID 0000.0001) %MON trcstat_ptracer14_max        =   6.4738454783644E-09
(PID.TID 0000.0001) %MON trcstat_ptracer14_min        =   6.4060493694420E-09
(PID.TID 0000.0001) %MON trcstat_ptracer14_mean       =   6.4627206256840E-09
(PID.TID 0000.0001) %MON trcstat_ptracer14_sd         =   1.7807234771582E-11
(PID.TID 0000.0001) %MON trcstat_ptracer14_del2       =   0.0000000000000E+00
(PID.TID 0000.0001) %MON trcstat_ptracer15_max        =   6.5267729767069E-09
(PID.TID 0000.0001) %MON trcstat_ptracer15_min        =   6.4919589473810E-09
(PID.TID 0000.0001) %MON trcstat_ptracer15_mean       =   6.5212070568111E-09
(PID.TID 0000.0001) %MON trcstat_ptracer15_sd         =   8.8358303328099E-12
(PID.TID 0000.0001) %MON trcstat_ptracer15_del2       =   0.0000000000000E+00
(PID.TID 0000.0001) %MON trcstat_ptracer16_max        =   6.5481542688482E-09
(PID.TID 0000.0001) %MON trcstat_ptracer16_min        =   6.5211061773711E-09
(PID.TID 0000.0001) %MON trcstat_ptracer16_mean       =   6.5414891708994E-09
(PID.TID 0000.0001) %MON trcstat_ptracer16_sd         =   6.0604837758339E-12
(PID.TID 0000.0001) %MON trcstat_ptracer16_del2       =   0.0000000000000E+00
(PID.TID 0000.0001) %MON trcstat_ptracer17_max        =   6.5692417575423E-09
(PID.TID 0000.0001) %MON trcstat_ptracer17_min        =   6.5435484441554E-09
(PID.TID 0000.0001) %MON trcstat_ptracer17_mean       =   6.5573142778366E-09
(PID.TID 0000.0001) %MON trcstat_ptracer17_sd         =   4.1031918301637E-12
(PID.TID 0000.0001) %MON trcstat_ptracer17_del2       =   0.0000000000000E+00
(PID.TID 0000.0001) %MON trcstat_ptracer18_max        =   6.5846474547811E-09
(PID.TID 0000.0001) %MON trcstat_ptracer18_min        =   6.5578442652851E-09
(PID.TID 0000.0001) %MON trcstat_ptracer18_mean       =   6.5695533013848E-09
(PID.TID 0000.0001) %MON trcstat_ptracer18_sd         =   2.8477283906319E-12
(PID.TID 0000.0001) %MON trcstat_ptracer18_del2       =   0.0000000000000E+00
(PID.TID 0000.0001) %MON trcstat_ptracer19_max        =   6.5953515624958E-09
(PID.TID 0000.0001) %MON trcstat_ptracer19_min        =   6.5572767788344E-09
(PID.TID 0000.0001) %MON trcstat_ptracer19_mean       =   6.5789118600332E-09
(PID.TID 0000.0001) %MON trcstat_ptracer19_sd         =   2.3163574325045E-12
(PID.TID 0000.0001) %MON trcstat_ptracer19_del2       =   0.0000000000000E+00
(PID.TID 0000.0001) %MON trcstat_ptracer20_max        =   6.6020605536794E-09
(PID.TID 0000.0001) %MON trcstat_ptracer20_min        =   6.5493115970889E-09
(PID.TID 0000.0001) %MON trcstat_ptracer20_mean       =   6.5859614268687E-09
(PID.TID 0000.0001) %MON trcstat_ptracer20_sd         =   2.5630779361087E-12
(PID.TID 0000.0001) %MON trcstat_ptracer20_del2       =   0.0000000000000E+00
(PID.TID 0000.0001) %MON trcstat_ptracer21_max        =   6.6133814384756E-09
(PID.TID 0000.0001) %MON trcstat_ptracer21_min        =   6.6081511445526E-09
(PID.TID 0000.0001) %MON trcstat_ptracer21_mean       =   6.6126564869083E-09
(PID.TID 0000.0001) %MON trcstat_ptracer21_sd         =   1.4297717904008E-12
(PID.TID 0000.0001) %MON trcstat_ptracer21_del2       =   0.0000000000000E+00
(PID.TID 0000.0001) %MON trcstat_ptracer22_max        =   1.0914663727761E-09
(PID.TID 0000.0001) %MON trcstat_ptracer22_min        =   8.2396284441876E-10
(PID.TID 0000.0001) %MON trcstat_ptracer22_mean       =   8.8217899282272E-10
(PID.TID 0000.0001) %MON trcstat_ptracer22_sd         =   7.2457521153788E-11
(PID.TID 0000.0001) %MON trcstat_ptracer22_del2       =   0.0000000000000E+00
(PID.TID 0000.0001) %MON trcstat_ptracer23_max        =   9.7977823276526E-10
(PID.TID 0000.0001) %MON trcstat_ptracer23_min        =   7.6546705925417E-10
(PID.TID 0000.0001) %MON trcstat_ptracer23_mean       =   8.0992123898064E-10
(PID.TID 0000.0001) %MON trcstat_ptracer23_sd         =   5.7927311873197E-11
(PID.TID 0000.0001) %MON trcstat_ptracer23_del2       =   0.0000000000000E+00
(PID.TID 0000.0001) %MON trcstat_ptracer24_max        =   8.8401641365752E-10
(PID.TID 0000.0001) %MON trcstat_ptracer24_min        =   7.1541475672245E-10
(PID.TID 0000.0001) %MON trcstat_ptracer24_mean       =   7.4891974781786E-10
(PID.TID 0000.0001) %MON trcstat_ptracer24_sd         =   4.5454696762511E-11
(PID.TID 0000.0001) %MON trcstat_ptracer24_del2       =   0.0000000000000E+00
(PID.TID 0000.0001) %MON trcstat_ptracer25_max        =   8.0311256246151E-10
(PID.TID 0000.0001) %MON trcstat_ptracer25_min        =   6.7239308254631E-10
(PID.TID 0000.0001) %MON trcstat_ptracer25_mean       =   6.9737622622870E-10
(PID.TID 0000.0001) %MON trcstat_ptracer25_sd         =   3.5171721805709E-11
(PID.TID 0000.0001) %MON trcstat_ptracer25_del2       =   0.0000000000000E+00
(PID.TID 0000.0001) %MON trcstat_ptracer26_max        =   7.3617647844449E-10
(PID.TID 0000.0001) %MON trcstat_ptracer26_min        =   6.3654191859796E-10
(PID.TID 0000.0001) %MON trcstat_ptracer26_mean       =   6.5493701103743E-10
(PID.TID 0000.0001) %MON trcstat_ptracer26_sd         =   2.6795791495171E-11
(PID.TID 0000.0001) %MON trcstat_ptracer26_del2       =   0.0000000000000E+00
(PID.TID 0000.0001) %MON trcstat_ptracer27_max        =   6.8220630072850E-10
(PID.TID 0000.0001) %MON trcstat_ptracer27_min        =   6.0718702506568E-10
(PID.TID 0000.0001) %MON trcstat_ptracer27_mean       =   6.2060133688640E-10
(PID.TID 0000.0001) %MON trcstat_ptracer27_sd         =   2.0178804358065E-11
(PID.TID 0000.0001) %MON trcstat_ptracer27_del2       =   0.0000000000000E+00
(PID.TID 0000.0001) %MON trcstat_ptracer28_max        =   6.3912041903858E-10
(PID.TID 0000.0001) %MON trcstat_ptracer28_min        =   5.8327052074432E-10
(PID.TID 0000.0001) %MON trcstat_ptracer28_mean       =   5.9296782665786E-10
(PID.TID 0000.0001) %MON trcstat_ptracer28_sd         =   1.5037801658370E-11
(PID.TID 0000.0001) %MON trcstat_ptracer28_del2       =   0.0000000000000E+00
(PID.TID 0000.0001) %MON trcstat_ptracer29_max        =   6.0501018562463E-10
(PID.TID 0000.0001) %MON trcstat_ptracer29_min        =   5.6388003807417E-10
(PID.TID 0000.0001) %MON trcstat_ptracer29_mean       =   5.7083031485104E-10
(PID.TID 0000.0001) %MON trcstat_ptracer29_sd         =   1.1092204359885E-11
(PID.TID 0000.0001) %MON trcstat_ptracer29_del2       =   0.0000000000000E+00
(PID.TID 0000.0001) %MON trcstat_ptracer30_max        =   5.7816491595738E-10
(PID.TID 0000.0001) %MON trcstat_ptracer30_min        =   5.4823779610124E-10
(PID.TID 0000.0001) %MON trcstat_ptracer30_mean       =   5.5317207390113E-10
(PID.TID 0000.0001) %MON trcstat_ptracer30_sd         =   8.0897732080544E-12
(PID.TID 0000.0001) %MON trcstat_ptracer30_del2       =   0.0000000000000E+00
(PID.TID 0000.0001) %MON trcstat_ptracer31_max        =   5.4083058109273E-10
(PID.TID 0000.0001) %MON trcstat_ptracer31_min        =   5.2567517436595E-10
(PID.TID 0000.0001) %MON trcstat_ptracer31_mean       =   5.2806702734977E-10
(PID.TID 0000.0001) %MON trcstat_ptracer31_sd         =   4.1093732142071E-12
(PID.TID 0000.0001) %MON trcstat_ptracer31_del2       =   0.0000000000000E+00
(PID.TID 0000.0001) %MON trcstat_ptracer32_max        =   5.2820501597708E-10
(PID.TID 0000.0001) %MON trcstat_ptracer32_min        =   5.1774338633508E-10
(PID.TID 0000.0001) %MON trcstat_ptracer32_mean       =   5.1935946642449E-10
(PID.TID 0000.0001) %MON trcstat_ptracer32_sd         =   2.8274107911601E-12
(PID.TID 0000.0001) %MON trcstat_ptracer32_del2       =   0.0000000000000E+00
(PID.TID 0000.0001) %MON trcstat_ptracer33_max        =   5.1848458644993E-10
(PID.TID 0000.0001) %MON trcstat_ptracer33_min        =   5.1150918462309E-10
(PID.TID 0000.0001) %MON trcstat_ptracer33_mean       =   5.1256540158125E-10
(PID.TID 0000.0001) %MON trcstat_ptracer33_sd         =   1.8710527905952E-12
(PID.TID 0000.0001) %MON trcstat_ptracer33_del2       =   0.0000000000000E+00
(PID.TID 0000.0001) %MON trcstat_ptracer34_max        =   5.1105950493554E-10
(PID.TID 0000.0001) %MON trcstat_ptracer34_min        =   5.0665639959154E-10
(PID.TID 0000.0001) %MON trcstat_ptracer34_mean       =   5.0731091086415E-10
(PID.TID 0000.0001) %MON trcstat_ptracer34_sd         =   1.1649255019680E-12
(PID.TID 0000.0001) %MON trcstat_ptracer34_del2       =   0.0000000000000E+00
(PID.TID 0000.0001) %MON trcstat_ptracer35_max        =   5.0544850766560E-10
(PID.TID 0000.0001) %MON trcstat_ptracer35_min        =   5.0122131533848E-10
(PID.TID 0000.0001) %MON trcstat_ptracer35_mean       =   5.0329304624179E-10
(PID.TID 0000.0001) %MON trcstat_ptracer35_sd         =   6.6242150793604E-13
(PID.TID 0000.0001) %MON trcstat_ptracer35_del2       =   0.0000000000000E+00
(PID.TID 0000.0001) %MON trcstat_ptracer36_max        =   5.0127021051942E-10
(PID.TID 0000.0001) %MON trcstat_ptracer36_min        =   4.9574189117112E-10
(PID.TID 0000.0001) %MON trcstat_ptracer36_mean       =   5.0026645361958E-10
(PID.TID 0000.0001) %MON trcstat_ptracer36_sd         =   3.7752669587831E-13
(PID.TID 0000.0001) %MON trcstat_ptracer36_del2       =   0.0000000000000E+00
(PID.TID 0000.0001) %MON trcstat_ptracer37_max        =   4.9912310547571E-10
(PID.TID 0000.0001) %MON trcstat_ptracer37_min        =   4.9872836632908E-10
(PID.TID 0000.0001) %MON trcstat_ptracer37_mean       =   4.9906839215229E-10
(PID.TID 0000.0001) %MON trcstat_ptracer37_sd         =   1.0790730018833E-13
(PID.TID 0000.0001) %MON trcstat_ptracer37_del2       =   0.0000000000000E+00
(PID.TID 0000.0001) %MON trcstat_ptracer38_max        =   4.6429266520285E-14
(PID.TID 0000.0001) %MON trcstat_ptracer38_min        =   2.9850461889599E-14
(PID.TID 0000.0001) %MON trcstat_ptracer38_mean       =   3.9069931074651E-14
(PID.TID 0000.0001) %MON trcstat_ptracer38_sd         =   5.9592227052716E-15
(PID.TID 0000.0001) %MON trcstat_ptracer38_del2       =   0.0000000000000E+00
(PID.TID 0000.0001) %MON trcstat_ptracer39_max        =   4.3831388263546E-14
(PID.TID 0000.0001) %MON trcstat_ptracer39_min        =   2.9850428689193E-14
(PID.TID 0000.0001) %MON trcstat_ptracer39_mean       =   3.7540044772608E-14
(PID.TID 0000.0001) %MON trcstat_ptracer39_sd         =   4.9806687276732E-15
(PID.TID 0000.0001) %MON trcstat_ptracer39_del2       =   0.0000000000000E+00
(PID.TID 0000.0001) %MON trcstat_ptracer40_max        =   4.1552968774760E-14
(PID.TID 0000.0001) %MON trcstat_ptracer40_min        =   2.9850406201738E-14
(PID.TID 0000.0001) %MON trcstat_ptracer40_mean       =   3.6231227676630E-14
(PID.TID 0000.0001) %MON trcstat_ptracer40_sd         =   4.1404071077885E-15
(PID.TID 0000.0001) %MON trcstat_ptracer40_del2       =   0.0000000000000E+00
(PID.TID 0000.0001) %MON trcstat_ptracer41_max        =   3.9587088726545E-14
(PID.TID 0000.0001) %MON trcstat_ptracer41_min        =   2.9850391261054E-14
(PID.TID 0000.0001) %MON trcstat_ptracer41_mean       =   3.5120287445291E-14
(PID.TID 0000.0001) %MON trcstat_ptracer41_sd         =   3.4250298176332E-15
(PID.TID 0000.0001) %MON trcstat_ptracer41_del2       =   0.0000000000000E+00
(PID.TID 0000.0001) %MON trcstat_ptracer42_max        =   3.7897387793646E-14
(PID.TID 0000.0001) %MON trcstat_ptracer42_min        =   2.9850381566477E-14
(PID.TID 0000.0001) %MON trcstat_ptracer42_mean       =   3.4180798065813E-14
(PID.TID 0000.0001) %MON trcstat_ptracer42_sd         =   2.8184826943774E-15
(PID.TID 0000.0001) %MON trcstat_ptracer42_del2       =   0.0000000000000E+00
(PID.TID 0000.0001) %MON trcstat_ptracer43_max        =   3.6458914313355E-14
(PID.TID 0000.0001) %MON trcstat_ptracer43_min        =   2.9850375497556E-14
(PID.TID 0000.0001) %MON trcstat_ptracer43_mean       =   3.3390133935017E-14
(PID.TID 0000.0001) %MON trcstat_ptracer43_sd         =   2.3069075171218E-15
(PID.TID 0000.0001) %MON trcstat_ptracer43_del2       =   0.0000000000000E+00
(PID.TID 0000.0001) %MON trcstat_ptracer44_max        =   3.5243305665222E-14
(PID.TID 0000.0001) %MON trcstat_ptracer44_min        =   2.9850371900917E-14
(PID.TID 0000.0001) %MON trcstat_ptracer44_mean       =   3.2728317632079E-14
(PID.TID 0000.0001) %MON trcstat_ptracer44_sd         =   1.8779193130733E-15
(PID.TID 0000.0001) %MON trcstat_ptracer44_del2       =   0.0000000000000E+00
(PID.TID 0000.0001) %MON trcstat_ptracer45_max        =   3.4223510387437E-14
(PID.TID 0000.0001) %MON trcstat_ptracer45_min        =   2.9850369943660E-14
(PID.TID 0000.0001) %MON trcstat_ptracer45_mean       =   3.2177141782104E-14
(PID.TID 0000.0001) %MON trcstat_ptracer45_sd         =   1.5200884761995E-15
(PID.TID 0000.0001) %MON trcstat_ptracer45_del2       =   0.0000000000000E+00
(PID.TID 0000.0001) %MON trcstat_ptracer46_max        =   3.3373526984935E-14
(PID.TID 0000.0001) %MON trcstat_ptracer46_min        =   2.9850369021025E-14
(PID.TID 0000.0001) %MON trcstat_ptracer46_mean       =   3.1720361554374E-14
(PID.TID 0000.0001) %MON trcstat_ptracer46_sd         =   1.2231074175470E-15
(PID.TID 0000.0001) %MON trcstat_ptracer46_del2       =   0.0000000000000E+00
(PID.TID 0000.0001) %MON trcstat_ptracer47_max        =   3.2093458606372E-14
(PID.TID 0000.0001) %MON trcstat_ptracer47_min        =   2.9850368632408E-14
(PID.TID 0000.0001) %MON trcstat_ptracer47_mean       =   3.1034826426920E-14
(PID.TID 0000.0001) %MON trcstat_ptracer47_sd         =   7.7639435265343E-16
(PID.TID 0000.0001) %MON trcstat_ptracer47_del2       =   0.0000000000000E+00
(PID.TID 0000.0001) %MON trcstat_ptracer48_max        =   3.1621025146255E-14
(PID.TID 0000.0001) %MON trcstat_ptracer48_min        =   2.9850368610395E-14
(PID.TID 0000.0001) %MON trcstat_ptracer48_mean       =   3.0782994434123E-14
(PID.TID 0000.0001) %MON trcstat_ptracer48_sd         =   6.1180577818150E-16
(PID.TID 0000.0001) %MON trcstat_ptracer48_del2       =   0.0000000000000E+00
(PID.TID 0000.0001) %MON trcstat_ptracer49_max        =   3.1237499005104E-14
(PID.TID 0000.0001) %MON trcstat_ptracer49_min        =   2.9850368462305E-14
(PID.TID 0000.0001) %MON trcstat_ptracer49_mean       =   3.0579031200485E-14
(PID.TID 0000.0001) %MON trcstat_ptracer49_sd         =   4.7815619646409E-16
(PID.TID 0000.0001) %MON trcstat_ptracer49_del2       =   0.0000000000000E+00
(PID.TID 0000.0001) %MON trcstat_ptracer50_max        =   3.0928129789678E-14
(PID.TID 0000.0001) %MON trcstat_ptracer50_min        =   2.9850368082844E-14
(PID.TID 0000.0001) %MON trcstat_ptracer50_mean       =   3.0415043878452E-14
(PID.TID 0000.0001) %MON trcstat_ptracer50_sd         =   3.7034376388805E-16
(PID.TID 0000.0001) %MON trcstat_ptracer50_del2       =   0.0000000000000E+00
(PID.TID 0000.0001) %MON trcstat_ptracer51_max        =   3.0680604926054E-14
(PID.TID 0000.0001) %MON trcstat_ptracer51_min        =   2.9850367416239E-14
(PID.TID 0000.0001) %MON trcstat_ptracer51_mean       =   3.0284259609585E-14
(PID.TID 0000.0001) %MON trcstat_ptracer51_sd         =   2.8401256247801E-16
(PID.TID 0000.0001) %MON trcstat_ptracer51_del2       =   0.0000000000000E+00
(PID.TID 0000.0001) %MON trcstat_ptracer52_max        =   3.0484306757640E-14
(PID.TID 0000.0001) %MON trcstat_ptracer52_min        =   2.9850366449837E-14
(PID.TID 0000.0001) %MON trcstat_ptracer52_mean       =   3.0180870606400E-14
(PID.TID 0000.0001) %MON trcstat_ptracer52_sd         =   2.1549692533424E-16
(PID.TID 0000.0001) %MON trcstat_ptracer52_del2       =   0.0000000000000E+00
(PID.TID 0000.0001) %MON trcstat_ptracer53_max        =   2.9947386649986E-14
(PID.TID 0000.0001) %MON trcstat_ptracer53_min        =   2.9923702300934E-14
(PID.TID 0000.0001) %MON trcstat_ptracer53_mean       =   2.9944103850545E-14
(PID.TID 0000.0001) %MON trcstat_ptracer53_sd         =   6.4744380808011E-18
(PID.TID 0000.0001) %MON trcstat_ptracer53_del2       =   0.0000000000000E+00
(PID.TID 0000.0001) %MON trcstat_ptracer54_max        =   1.8249331084008E-09
(PID.TID 0000.0001) %MON trcstat_ptracer54_min        =   9.9501037695901E-10
(PID.TID 0000.0001) %MON trcstat_ptracer54_mean       =   1.0224174883587E-09
(PID.TID 0000.0001) %MON trcstat_ptracer54_sd         =   1.4548210532802E-10
(PID.TID 0000.0001) %MON trcstat_ptracer54_del2       =   0.0000000000000E+00
(PID.TID 0000.0001) %MON trcstat_ptracer55_max        =   1.8668671680851E-09
(PID.TID 0000.0001) %MON trcstat_ptracer55_min        =   9.9501037695901E-10
(PID.TID 0000.0001) %MON trcstat_ptracer55_mean       =   1.0226594684195E-09
(PID.TID 0000.0001) %MON trcstat_ptracer55_sd         =   1.4707431015022E-10
(PID.TID 0000.0001) %MON trcstat_ptracer55_del2       =   0.0000000000000E+00
(PID.TID 0000.0001) %MON trcstat_ptracer56_max        =   1.6866937522108E-09
(PID.TID 0000.0001) %MON trcstat_ptracer56_min        =   9.9501037695901E-10
(PID.TID 0000.0001) %MON trcstat_ptracer56_mean       =   1.0178135042102E-09
(PID.TID 0000.0001) %MON trcstat_ptracer56_sd         =   1.2103265417397E-10
(PID.TID 0000.0001) %MON trcstat_ptracer56_del2       =   0.0000000000000E+00
(PID.TID 0000.0001) %MON trcstat_ptracer57_max        =   1.6554613223907E-09
(PID.TID 0000.0001) %MON trcstat_ptracer57_min        =   9.9501037695901E-10
(PID.TID 0000.0001) %MON trcstat_ptracer57_mean       =   1.0164969942088E-09
(PID.TID 0000.0001) %MON trcstat_ptracer57_sd         =   1.1410398343025E-10
(PID.TID 0000.0001) %MON trcstat_ptracer57_del2       =   0.0000000000000E+00
(PID.TID 0000.0001) %MON trcstat_ptracer58_max        =   1.5063315225211E-09
(PID.TID 0000.0001) %MON trcstat_ptracer58_min        =   9.9501037695901E-10
(PID.TID 0000.0001) %MON trcstat_ptracer58_mean       =   1.0119204817016E-09
(PID.TID 0000.0001) %MON trcstat_ptracer58_sd         =   8.9731653793600E-11
(PID.TID 0000.0001) %MON trcstat_ptracer58_del2       =   0.0000000000000E+00
(PID.TID 0000.0001) %MON trcstat_ptracer59_max        =   1.3879738012242E-09
(PID.TID 0000.0001) %MON trcstat_ptracer59_min        =   9.9501037695901E-10
(PID.TID 0000.0001) %MON trcstat_ptracer59_mean       =   1.0082315756392E-09
(PID.TID 0000.0001) %MON trcstat_ptracer59_sd         =   7.0109129597268E-11
(PID.TID 0000.0001) %MON trcstat_ptracer59_del2       =   0.0000000000000E+00
(PID.TID 0000.0001) %MON trcstat_ptracer60_max        =   1.2940505170719E-09
(PID.TID 0000.0001) %MON trcstat_ptracer60_min        =   9.9501037695901E-10
(PID.TID 0000.0001) %MON trcstat_ptracer60_mean       =   1.0050958775045E-09
(PID.TID 0000.0001) %MON trcstat_ptracer60_sd         =   5.3467603399870E-11
(PID.TID 0000.0001) %MON trcstat_ptracer60_del2       =   0.0000000000000E+00
(PID.TID 0000.0001) %MON trcstat_ptracer61_max        =   1.2205642610436E-09
(PID.TID 0000.0001) %MON trcstat_ptracer61_min        =   9.9501037695901E-10
(PID.TID 0000.0001) %MON trcstat_ptracer61_mean       =   1.0026302793805E-09
(PID.TID 0000.0001) %MON trcstat_ptracer61_sd         =   4.0381005846766E-11
(PID.TID 0000.0001) %MON trcstat_ptracer61_del2       =   0.0000000000000E+00
(PID.TID 0000.0001) %MON trcstat_ptracer62_max        =   1.1633581144379E-09
(PID.TID 0000.0001) %MON trcstat_ptracer62_min        =   9.9501037695901E-10
(PID.TID 0000.0001) %MON trcstat_ptracer62_mean       =   1.0007048030854E-09
(PID.TID 0000.0001) %MON trcstat_ptracer62_sd         =   3.0158036104955E-11
(PID.TID 0000.0001) %MON trcstat_ptracer62_del2       =   0.0000000000000E+00
(PID.TID 0000.0001) %MON trcstat_ptracer63_max        =   1.0849195847206E-09
(PID.TID 0000.0001) %MON trcstat_ptracer63_min        =   9.9501037695901E-10
(PID.TID 0000.0001) %MON trcstat_ptracer63_mean       =   9.9807391447899E-10
(PID.TID 0000.0001) %MON trcstat_ptracer63_sd         =   1.6172730339076E-11
(PID.TID 0000.0001) %MON trcstat_ptracer63_del2       =   0.0000000000000E+00
(PID.TID 0000.0001) %MON trcstat_ptracer64_max        =   1.0584918979568E-09
(PID.TID 0000.0001) %MON trcstat_ptracer64_min        =   9.9501037695901E-10
(PID.TID 0000.0001) %MON trcstat_ptracer64_mean       =   9.9717408243467E-10
(PID.TID 0000.0001) %MON trcstat_ptracer64_sd         =   1.1379577922655E-11
(PID.TID 0000.0001) %MON trcstat_ptracer64_del2       =   0.0000000000000E+00
(PID.TID 0000.0001) %MON trcstat_ptracer65_max        =   1.0382624480319E-09
(PID.TID 0000.0001) %MON trcstat_ptracer65_min        =   9.9501037695901E-10
(PID.TID 0000.0001) %MON trcstat_ptracer65_mean       =   9.9648503400755E-10
(PID.TID 0000.0001) %MON trcstat_ptracer65_sd         =   7.6989592211200E-12
(PID.TID 0000.0001) %MON trcstat_ptracer65_del2       =   0.0000000000000E+00
(PID.TID 0000.0001) %MON trcstat_ptracer66_max        =   1.0228867456988E-09
(PID.TID 0000.0001) %MON trcstat_ptracer66_min        =   9.9501037695901E-10
(PID.TID 0000.0001) %MON trcstat_ptracer66_mean       =   9.9596119467165E-10
(PID.TID 0000.0001) %MON trcstat_ptracer66_sd         =   4.8900126223904E-12
(PID.TID 0000.0001) %MON trcstat_ptracer66_del2       =   0.0000000000000E+00
(PID.TID 0000.0001) %MON trcstat_ptracer67_max        =   1.0113150496787E-09
(PID.TID 0000.0001) %MON trcstat_ptracer67_min        =   9.9501037695901E-10
(PID.TID 0000.0001) %MON trcstat_ptracer67_mean       =   9.9556692574443E-10
(PID.TID 0000.0001) %MON trcstat_ptracer67_sd         =   2.7720575889331E-12
(PID.TID 0000.0001) %MON trcstat_ptracer67_del2       =   0.0000000000000E+00
(PID.TID 0000.0001) %MON trcstat_ptracer68_max        =   1.0027265881104E-09
(PID.TID 0000.0001) %MON trcstat_ptracer68_min        =   9.9148203542131E-10
(PID.TID 0000.0001) %MON trcstat_ptracer68_mean       =   9.9527432936754E-10
(PID.TID 0000.0001) %MON trcstat_ptracer68_sd         =   1.2553135070111E-12
(PID.TID 0000.0001) %MON trcstat_ptracer68_del2       =   0.0000000000000E+00
(PID.TID 0000.0001) %MON trcstat_ptracer69_max        =   2.9753231839869E-10
(PID.TID 0000.0001) %MON trcstat_ptracer69_min        =   2.9541943379637E-10
(PID.TID 0000.0001) %MON trcstat_ptracer69_mean       =   2.9702644383552E-10
(PID.TID 0000.0001) %MON trcstat_ptracer69_sd         =   5.7268574278175E-13
(PID.TID 0000.0001) %MON trcstat_ptracer69_del2       =   0.0000000000000E+00
(PID.TID 0000.0001) %MON trcstat_ptracer70_max        =   2.0260063800247E-10
(PID.TID 0000.0001) %MON trcstat_ptracer70_min        =   1.8542210287826E-10
(PID.TID 0000.0001) %MON trcstat_ptracer70_mean       =   2.0178082309473E-10
(PID.TID 0000.0001) %MON trcstat_ptracer70_sd         =   9.1612408067175E-13
(PID.TID 0000.0001) %MON trcstat_ptracer70_del2       =   0.0000000000000E+00
(PID.TID 0000.0001) %MON trcstat_ptracer71_max        =   2.7198143256924E-01
(PID.TID 0000.0001) %MON trcstat_ptracer71_min        =   2.5265312877073E-11
(PID.TID 0000.0001) %MON trcstat_ptracer71_mean       =   3.2988281461317E-02
(PID.TID 0000.0001) %MON trcstat_ptracer71_sd         =   8.3476579508368E-02
(PID.TID 0000.0001) %MON trcstat_ptracer71_del2       =   0.0000000000000E+00
(PID.TID 0000.0001) %MON trcstat_ptracer72_max        =   3.0233251652554E-02
(PID.TID 0000.0001) %MON trcstat_ptracer72_min        =   1.5994357699195E-07
(PID.TID 0000.0001) %MON trcstat_ptracer72_mean       =   1.4883961604785E-02
(PID.TID 0000.0001) %MON trcstat_ptracer72_sd         =   1.1063375217450E-02
(PID.TID 0000.0001) %MON trcstat_ptracer72_del2       =   0.0000000000000E+00
(PID.TID 0000.0001) %MON trcstat_ptracer73_max        =   1.6998839357344E-05
(PID.TID 0000.0001) %MON trcstat_ptracer73_min        =   1.3724930258945E-15
(PID.TID 0000.0001) %MON trcstat_ptracer73_mean       =   2.0617675899612E-06
(PID.TID 0000.0001) %MON trcstat_ptracer73_sd         =   5.2172862148473E-06
(PID.TID 0000.0001) %MON trcstat_ptracer73_del2       =   0.0000000000000E+00
(PID.TID 0000.0001) %MON trcstat_ptracer74_max        =   1.8895783017642E-06
(PID.TID 0000.0001) %MON trcstat_ptracer74_min        =   9.9963768253665E-12
(PID.TID 0000.0001) %MON trcstat_ptracer74_mean       =   9.3024760816774E-07
(PID.TID 0000.0001) %MON trcstat_ptracer74_sd         =   6.9146097632043E-07
(PID.TID 0000.0001) %MON trcstat_ptracer74_del2       =   0.0000000000000E+00
(PID.TID 0000.0001) // =======================================================
(PID.TID 0000.0001) // End MONITOR ptracers field statistics
(PID.TID 0000.0001) // =======================================================
(PID.TID 0000.0001) // =======================================================
(PID.TID 0000.0001) // Begin MONITOR dynamic field statistics
(PID.TID 0000.0001) // =======================================================
(PID.TID 0000.0001) %MON time_tsnumber                =                     3
(PID.TID 0000.0001) %MON time_secondsf                =   3.2400000000000E+04
(PID.TID 0000.0001) %MON dynstat_eta_max              =   0.0000000000000E+00
(PID.TID 0000.0001) %MON dynstat_eta_min              =   0.0000000000000E+00
(PID.TID 0000.0001) %MON dynstat_eta_mean             =   0.0000000000000E+00
(PID.TID 0000.0001) %MON dynstat_eta_sd               =   0.0000000000000E+00
(PID.TID 0000.0001) %MON dynstat_eta_del2             =   0.0000000000000E+00
(PID.TID 0000.0001) %MON dynstat_uvel_max             =   0.0000000000000E+00
(PID.TID 0000.0001) %MON dynstat_uvel_min             =   0.0000000000000E+00
(PID.TID 0000.0001) %MON dynstat_uvel_mean            =   0.0000000000000E+00
(PID.TID 0000.0001) %MON dynstat_uvel_sd              =   0.0000000000000E+00
(PID.TID 0000.0001) %MON dynstat_uvel_del2            =   0.0000000000000E+00
(PID.TID 0000.0001) %MON dynstat_vvel_max             =   0.0000000000000E+00
(PID.TID 0000.0001) %MON dynstat_vvel_min             =   0.0000000000000E+00
(PID.TID 0000.0001) %MON dynstat_vvel_mean            =   0.0000000000000E+00
(PID.TID 0000.0001) %MON dynstat_vvel_sd              =   0.0000000000000E+00
(PID.TID 0000.0001) %MON dynstat_vvel_del2            =   0.0000000000000E+00
(PID.TID 0000.0001) %MON dynstat_wvel_max             =   0.0000000000000E+00
(PID.TID 0000.0001) %MON dynstat_wvel_min             =   0.0000000000000E+00
(PID.TID 0000.0001) %MON dynstat_wvel_mean            =   0.0000000000000E+00
(PID.TID 0000.0001) %MON dynstat_wvel_sd              =   0.0000000000000E+00
(PID.TID 0000.0001) %MON dynstat_wvel_del2            =   0.0000000000000E+00
(PID.TID 0000.0001) %MON dynstat_theta_max            =   6.4982507919171E+00
(PID.TID 0000.0001) %MON dynstat_theta_min            =  -9.3887414449177E-01
(PID.TID 0000.0001) %MON dynstat_theta_mean           =   1.5610609119765E-01
(PID.TID 0000.0001) %MON dynstat_theta_sd             =   2.0855626582259E+00
(PID.TID 0000.0001) %MON dynstat_theta_del2           =   0.0000000000000E+00
(PID.TID 0000.0001) %MON dynstat_salt_max             =   3.5000000000000E+01
(PID.TID 0000.0001) %MON dynstat_salt_min             =   3.5000000000000E+01
(PID.TID 0000.0001) %MON dynstat_salt_mean            =   3.5000000000000E+01
(PID.TID 0000.0001) %MON dynstat_salt_sd              =   7.1054273576010E-15
(PID.TID 0000.0001) %MON dynstat_salt_del2            =   0.0000000000000E+00
(PID.TID 0000.0001) %MON dynstat_sst_max              =   6.4982507919171E+00
(PID.TID 0000.0001) %MON dynstat_sst_min              =   6.4982507919171E+00
(PID.TID 0000.0001) %MON dynstat_sst_mean             =   6.4982507919171E+00
(PID.TID 0000.0001) %MON dynstat_sst_sd               =   0.0000000000000E+00
(PID.TID 0000.0001) %MON dynstat_sst_del2             =   0.0000000000000E+00
(PID.TID 0000.0001) %MON dynstat_sss_max              =   3.5000000000000E+01
(PID.TID 0000.0001) %MON dynstat_sss_min              =   3.5000000000000E+01
(PID.TID 0000.0001) %MON dynstat_sss_mean             =   3.5000000000000E+01
(PID.TID 0000.0001) %MON dynstat_sss_sd               =   0.0000000000000E+00
(PID.TID 0000.0001) %MON dynstat_sss_del2             =   0.0000000000000E+00
(PID.TID 0000.0001) %MON forcing_qnet_max             =   0.0000000000000E+00
(PID.TID 0000.0001) %MON forcing_qnet_min             =   0.0000000000000E+00
(PID.TID 0000.0001) %MON forcing_qnet_mean            =   0.0000000000000E+00
(PID.TID 0000.0001) %MON forcing_qnet_sd              =   0.0000000000000E+00
(PID.TID 0000.0001) %MON forcing_qnet_del2            =   0.0000000000000E+00
(PID.TID 0000.0001) %MON forcing_qsw_max              =   0.0000000000000E+00
(PID.TID 0000.0001) %MON forcing_qsw_min              =   0.0000000000000E+00
(PID.TID 0000.0001) %MON forcing_qsw_mean             =   0.0000000000000E+00
(PID.TID 0000.0001) %MON forcing_qsw_sd               =   0.0000000000000E+00
(PID.TID 0000.0001) %MON forcing_qsw_del2             =   0.0000000000000E+00
(PID.TID 0000.0001) %MON forcing_empmr_max            =   0.0000000000000E+00
(PID.TID 0000.0001) %MON forcing_empmr_min            =   0.0000000000000E+00
(PID.TID 0000.0001) %MON forcing_empmr_mean           =   0.0000000000000E+00
(PID.TID 0000.0001) %MON forcing_empmr_sd             =   0.0000000000000E+00
(PID.TID 0000.0001) %MON forcing_empmr_del2           =   0.0000000000000E+00
(PID.TID 0000.0001) %MON forcing_fu_max               =   2.2715694695711E+00
(PID.TID 0000.0001) %MON forcing_fu_min               =   2.2715694695711E+00
(PID.TID 0000.0001) %MON forcing_fu_mean              =   2.2715694695711E+00
(PID.TID 0000.0001) %MON forcing_fu_sd                =   0.0000000000000E+00
(PID.TID 0000.0001) %MON forcing_fu_del2              =   0.0000000000000E+00
(PID.TID 0000.0001) %MON forcing_fv_max               =   1.1480025862654E+00
(PID.TID 0000.0001) %MON forcing_fv_min               =   1.1480025862654E+00
(PID.TID 0000.0001) %MON forcing_fv_mean              =   1.1480025862654E+00
(PID.TID 0000.0001) %MON forcing_fv_sd                =   0.0000000000000E+00
(PID.TID 0000.0001) %MON forcing_fv_del2              =   0.0000000000000E+00
(PID.TID 0000.0001) %MON advcfl_uvel_max              =   0.0000000000000E+00
(PID.TID 0000.0001) %MON advcfl_vvel_max              =   0.0000000000000E+00
(PID.TID 0000.0001) %MON advcfl_wvel_max              =   0.0000000000000E+00
(PID.TID 0000.0001) %MON advcfl_W_hf_max              =   0.0000000000000E+00
(PID.TID 0000.0001) %MON pe_b_mean                    =   0.0000000000000E+00
(PID.TID 0000.0001) %MON ke_max                       =   0.0000000000000E+00
(PID.TID 0000.0001) %MON ke_mean                      =   0.0000000000000E+00
(PID.TID 0000.0001) %MON ke_vol                       =   4.1199767883485E+13
(PID.TID 0000.0001) %MON vort_r_min                   =   0.0000000000000E+00
(PID.TID 0000.0001) %MON vort_r_max                   =   0.0000000000000E+00
(PID.TID 0000.0001) %MON vort_a_mean                  =  -4.5067801836625E-05
(PID.TID 0000.0001) %MON vort_a_sd                    =  -4.1359030627651E-25
(PID.TID 0000.0001) %MON vort_p_mean                  =  -4.5067801836625E-05
(PID.TID 0000.0001) %MON vort_p_sd                    =   0.0000000000000E+00
(PID.TID 0000.0001) %MON surfExpan_theta_mean         =   0.0000000000000E+00
(PID.TID 0000.0001) %MON surfExpan_salt_mean          =   0.0000000000000E+00
(PID.TID 0000.0001) // =======================================================
(PID.TID 0000.0001) // End MONITOR dynamic field statistics
(PID.TID 0000.0001) // =======================================================
(PID.TID 0000.0001) // =======================================================
(PID.TID 0000.0001) // Begin MONITOR ptracer field statistics
(PID.TID 0000.0001) // =======================================================
(PID.TID 0000.0001) %MON trcstat_ptracer01_max        =   2.1623998930012E+03
(PID.TID 0000.0001) %MON trcstat_ptracer01_min        =   2.0947204476818E+03
(PID.TID 0000.0001) %MON trcstat_ptracer01_mean       =   2.1557233177755E+03
(PID.TID 0000.0001) %MON trcstat_ptracer01_sd         =   1.1485329988780E+01
(PID.TID 0000.0001) %MON trcstat_ptracer01_del2       =   0.0000000000000E+00
(PID.TID 0000.0001) %MON trcstat_ptracer02_max        =   1.5341521852169E+01
(PID.TID 0000.0001) %MON trcstat_ptracer02_min        =   1.1894623491948E+01
(PID.TID 0000.0001) %MON trcstat_ptracer02_mean       =   1.4471853784972E+01
(PID.TID 0000.0001) %MON trcstat_ptracer02_sd         =   9.1945472006216E-01
(PID.TID 0000.0001) %MON trcstat_ptracer02_del2       =   0.0000000000000E+00
(PID.TID 0000.0001) %MON trcstat_ptracer03_max        =   3.7852965118854E-02
(PID.TID 0000.0001) %MON trcstat_ptracer03_min        =   7.5478140322426E-11
(PID.TID 0000.0001) %MON trcstat_ptracer03_mean       =   7.7605044520456E-03
(PID.TID 0000.0001) %MON trcstat_ptracer03_sd         =   1.0744166590137E-02
(PID.TID 0000.0001) %MON trcstat_ptracer03_del2       =   0.0000000000000E+00
(PID.TID 0000.0001) %MON trcstat_ptracer04_max        =   1.7098189086215E-03
(PID.TID 0000.0001) %MON trcstat_ptracer04_min        =   5.0808029607207E-10
(PID.TID 0000.0001) %MON trcstat_ptracer04_mean       =   2.9940170190160E-04
(PID.TID 0000.0001) %MON trcstat_ptracer04_sd         =   4.4109815049755E-04
(PID.TID 0000.0001) %MON trcstat_ptracer04_del2       =   0.0000000000000E+00
(PID.TID 0000.0001) %MON trcstat_ptracer05_max        =   9.1624247142240E-04
(PID.TID 0000.0001) %MON trcstat_ptracer05_min        =   3.9221351633978E-13
(PID.TID 0000.0001) %MON trcstat_ptracer05_mean       =   5.7979749770159E-04
(PID.TID 0000.0001) %MON trcstat_ptracer05_sd         =   3.7870557034284E-04
(PID.TID 0000.0001) %MON trcstat_ptracer05_del2       =   0.0000000000000E+00
(PID.TID 0000.0001) %MON trcstat_ptracer06_max        =   5.5254128768165E-09
(PID.TID 0000.0001) %MON trcstat_ptracer06_min        =   4.8614378424187E-09
(PID.TID 0000.0001) %MON trcstat_ptracer06_mean       =   5.3619499540049E-09
(PID.TID 0000.0001) %MON trcstat_ptracer06_sd         =   1.8227948885852E-10
(PID.TID 0000.0001) %MON trcstat_ptracer06_del2       =   0.0000000000000E+00
(PID.TID 0000.0001) %MON trcstat_ptracer07_max        =   5.7074279825861E-09
(PID.TID 0000.0001) %MON trcstat_ptracer07_min        =   5.1419140894195E-09
(PID.TID 0000.0001) %MON trcstat_ptracer07_mean       =   5.5762511936559E-09
(PID.TID 0000.0001) %MON trcstat_ptracer07_sd         =   1.5417635314052E-10
(PID.TID 0000.0001) %MON trcstat_ptracer07_del2       =   0.0000000000000E+00
(PID.TID 0000.0001) %MON trcstat_ptracer08_max        =   5.8648584571541E-09
(PID.TID 0000.0001) %MON trcstat_ptracer08_min        =   5.3975756719280E-09
(PID.TID 0000.0001) %MON trcstat_ptracer08_mean       =   5.7620590906858E-09
(PID.TID 0000.0001) %MON trcstat_ptracer08_sd         =   1.2653783966197E-10
(PID.TID 0000.0001) %MON trcstat_ptracer08_del2       =   0.0000000000000E+00
(PID.TID 0000.0001) %MON trcstat_ptracer09_max        =   6.0007071828932E-09
(PID.TID 0000.0001) %MON trcstat_ptracer09_min        =   5.6248018324025E-09
(PID.TID 0000.0001) %MON trcstat_ptracer09_mean       =   5.9217857651015E-09
(PID.TID 0000.0001) %MON trcstat_ptracer09_sd         =   1.0121037774362E-10
(PID.TID 0000.0001) %MON trcstat_ptracer09_del2       =   0.0000000000000E+00
(PID.TID 0000.0001) %MON trcstat_ptracer10_max        =   6.1151192920107E-09
(PID.TID 0000.0001) %MON trcstat_ptracer10_min        =   5.8195829403509E-09
(PID.TID 0000.0001) %MON trcstat_ptracer10_mean       =   6.0556799723863E-09
(PID.TID 0000.0001) %MON trcstat_ptracer10_sd         =   7.9200878277518E-11
(PID.TID 0000.0001) %MON trcstat_ptracer10_del2       =   0.0000000000000E+00
(PID.TID 0000.0001) %MON trcstat_ptracer11_max        =   6.2099876241361E-09
(PID.TID 0000.0001) %MON trcstat_ptracer11_min        =   5.9821706046433E-09
(PID.TID 0000.0001) %MON trcstat_ptracer11_mean       =   6.1660006774730E-09
(PID.TID 0000.0001) %MON trcstat_ptracer11_sd         =   6.0729693491255E-11
(PID.TID 0000.0001) %MON trcstat_ptracer11_del2       =   0.0000000000000E+00
(PID.TID 0000.0001) %MON trcstat_ptracer12_max        =   6.2881047212434E-09
(PID.TID 0000.0001) %MON trcstat_ptracer12_min        =   6.1152941618366E-09
(PID.TID 0000.0001) %MON trcstat_ptracer12_mean       =   6.2560395280072E-09
(PID.TID 0000.0001) %MON trcstat_ptracer12_sd         =   4.5810904884202E-11
(PID.TID 0000.0001) %MON trcstat_ptracer12_del2       =   0.0000000000000E+00
(PID.TID 0000.0001) %MON trcstat_ptracer13_max        =   6.3520114667862E-09
(PID.TID 0000.0001) %MON trcstat_ptracer13_min        =   6.2227316025091E-09
(PID.TID 0000.0001) %MON trcstat_ptracer13_mean       =   6.3289918519974E-09
(PID.TID 0000.0001) %MON trcstat_ptracer13_sd         =   3.3996623946590E-11
(PID.TID 0000.0001) %MON trcstat_ptracer13_del2       =   0.0000000000000E+00
(PID.TID 0000.0001) %MON trcstat_ptracer14_max        =   6.4041433767823E-09
(PID.TID 0000.0001) %MON trcstat_ptracer14_min        =   6.3086656896840E-09
(PID.TID 0000.0001) %MON trcstat_ptracer14_mean       =   6.3877089020624E-09
(PID.TID 0000.0001) %MON trcstat_ptracer14_sd         =   2.4815677224173E-11
(PID.TID 0000.0001) %MON trcstat_ptracer14_del2       =   0.0000000000000E+00
(PID.TID 0000.0001) %MON trcstat_ptracer15_max        =   6.4802914545778E-09
(PID.TID 0000.0001) %MON trcstat_ptracer15_min        =   6.4304179791705E-09
(PID.TID 0000.0001) %MON trcstat_ptracer15_mean       =   6.4720233996990E-09
(PID.TID 0000.0001) %MON trcstat_ptracer15_sd         =   1.2494509432310E-11
(PID.TID 0000.0001) %MON trcstat_ptracer15_del2       =   0.0000000000000E+00
(PID.TID 0000.0001) %MON trcstat_ptracer16_max        =   6.5074335802011E-09
(PID.TID 0000.0001) %MON trcstat_ptracer16_min        =   6.4722969877521E-09
(PID.TID 0000.0001) %MON trcstat_ptracer16_mean       =   6.5014993304524E-09
(PID.TID 0000.0001) %MON trcstat_ptracer16_sd         =   8.5992434572104E-12
(PID.TID 0000.0001) %MON trcstat_ptracer16_del2       =   0.0000000000000E+00
(PID.TID 0000.0001) %MON trcstat_ptracer17_max        =   6.5369446964904E-09
(PID.TID 0000.0001) %MON trcstat_ptracer17_min        =   6.5047521657355E-09
(PID.TID 0000.0001) %MON trcstat_ptracer17_mean       =   6.5245917128959E-09
(PID.TID 0000.0001) %MON trcstat_ptracer17_sd         =   5.8071312737311E-12
(PID.TID 0000.0001) %MON trcstat_ptracer17_del2       =   0.0000000000000E+00
(PID.TID 0000.0001) %MON trcstat_ptracer18_max        =   6.5589133271519E-09
(PID.TID 0000.0001) %MON trcstat_ptracer18_min        =   6.5296725703028E-09
(PID.TID 0000.0001) %MON trcstat_ptracer18_mean       =   6.5425140502655E-09
(PID.TID 0000.0001) %MON trcstat_ptracer18_sd         =   3.9293239809187E-12
(PID.TID 0000.0001) %MON trcstat_ptracer18_del2       =   0.0000000000000E+00
(PID.TID 0000.0001) %MON trcstat_ptracer19_max        =   6.5741122412343E-09
(PID.TID 0000.0001) %MON trcstat_ptracer19_min        =   6.5363565151092E-09
(PID.TID 0000.0001) %MON trcstat_ptracer19_mean       =   6.5562610561018E-09
(PID.TID 0000.0001) %MON trcstat_ptracer19_sd         =   2.9141118969971E-12
(PID.TID 0000.0001) %MON trcstat_ptracer19_del2       =   0.0000000000000E+00
(PID.TID 0000.0001) %MON trcstat_ptracer20_max        =   6.5834895506524E-09
(PID.TID 0000.0001) %MON trcstat_ptracer20_min        =   6.5309792372714E-09
(PID.TID 0000.0001) %MON trcstat_ptracer20_mean       =   6.5666457192891E-09
(PID.TID 0000.0001) %MON trcstat_ptracer20_sd         =   2.8451973947475E-12
(PID.TID 0000.0001) %MON trcstat_ptracer20_del2       =   0.0000000000000E+00
(PID.TID 0000.0001) %MON trcstat_ptracer21_max        =   6.6075797416321E-09
(PID.TID 0000.0001) %MON trcstat_ptracer21_min        =   6.5997483914799E-09
(PID.TID 0000.0001) %MON trcstat_ptracer21_mean       =   6.6064934078277E-09
(PID.TID 0000.0001) %MON trcstat_ptracer21_sd         =   2.1424471738050E-12
(PID.TID 0000.0001) %MON trcstat_ptracer21_del2       =   0.0000000000000E+00
(PID.TID 0000.0001) %MON trcstat_ptracer22_max        =   1.2386730668785E-09
(PID.TID 0000.0001) %MON trcstat_ptracer22_min        =   9.4693415501435E-10
(PID.TID 0000.0001) %MON trcstat_ptracer22_mean       =   1.0174913342638E-09
(PID.TID 0000.0001) %MON trcstat_ptracer22_sd         =   7.9286766473814E-11
(PID.TID 0000.0001) %MON trcstat_ptracer22_del2       =   0.0000000000000E+00
(PID.TID 0000.0001) %MON trcstat_ptracer23_max        =   1.1176567150759E-09
(PID.TID 0000.0001) %MON trcstat_ptracer23_min        =   8.6881608594965E-10
(PID.TID 0000.0001) %MON trcstat_ptracer23_mean       =   9.2552698348869E-10
(PID.TID 0000.0001) %MON trcstat_ptracer23_sd         =   6.7269422869194E-11
(PID.TID 0000.0001) %MON trcstat_ptracer23_del2       =   0.0000000000000E+00
(PID.TID 0000.0001) %MON trcstat_ptracer24_max        =   1.0069380704040E-09
(PID.TID 0000.0001) %MON trcstat_ptracer24_min        =   8.0124936139430E-10
(PID.TID 0000.0001) %MON trcstat_ptracer24_mean       =   8.4577000410513E-10
(PID.TID 0000.0001) %MON trcstat_ptracer24_sd         =   5.5384815714574E-11
(PID.TID 0000.0001) %MON trcstat_ptracer24_del2       =   0.0000000000000E+00
(PID.TID 0000.0001) %MON trcstat_ptracer25_max        =   9.0890425031148E-10
(PID.TID 0000.0001) %MON trcstat_ptracer25_min        =   7.4294519083078E-10
(PID.TID 0000.0001) %MON trcstat_ptracer25_mean       =   7.7723047334748E-10
(PID.TID 0000.0001) %MON trcstat_ptracer25_sd         =   4.4546608960141E-11
(PID.TID 0000.0001) %MON trcstat_ptracer25_del2       =   0.0000000000000E+00
(PID.TID 0000.0001) %MON trcstat_ptracer26_max        =   8.2449498446251E-10
(PID.TID 0000.0001) %MON trcstat_ptracer26_min        =   6.9384128602090E-10
(PID.TID 0000.0001) %MON trcstat_ptracer26_mean       =   7.1974111447828E-10
(PID.TID 0000.0001) %MON trcstat_ptracer26_sd         =   3.5025002135181E-11
(PID.TID 0000.0001) %MON trcstat_ptracer26_del2       =   0.0000000000000E+00
(PID.TID 0000.0001) %MON trcstat_ptracer27_max        =   7.5405333624181E-10
(PID.TID 0000.0001) %MON trcstat_ptracer27_min        =   6.5312526978548E-10
(PID.TID 0000.0001) %MON trcstat_ptracer27_mean       =   6.7238104684311E-10
(PID.TID 0000.0001) %MON trcstat_ptracer27_sd         =   2.7042421478631E-11
(PID.TID 0000.0001) %MON trcstat_ptracer27_del2       =   0.0000000000000E+00
(PID.TID 0000.0001) %MON trcstat_ptracer28_max        =   6.9624941253427E-10
(PID.TID 0000.0001) %MON trcstat_ptracer28_min        =   6.1959862670697E-10
(PID.TID 0000.0001) %MON trcstat_ptracer28_mean       =   6.3371623247169E-10
(PID.TID 0000.0001) %MON trcstat_ptracer28_sd         =   2.0551705768534E-11
(PID.TID 0000.0001) %MON trcstat_ptracer28_del2       =   0.0000000000000E+00
(PID.TID 0000.0001) %MON trcstat_ptracer29_max        =   6.4950076440489E-10
(PID.TID 0000.0001) %MON trcstat_ptracer29_min        =   5.9217084945643E-10
(PID.TID 0000.0001) %MON trcstat_ptracer29_mean       =   6.0238915809048E-10
(PID.TID 0000.0001) %MON trcstat_ptracer29_sd         =   1.5394275031797E-11
(PID.TID 0000.0001) %MON trcstat_ptracer29_del2       =   0.0000000000000E+00
(PID.TID 0000.0001) %MON trcstat_ptracer30_max        =   6.1209011340320E-10
(PID.TID 0000.0001) %MON trcstat_ptracer30_min        =   5.6987402684936E-10
(PID.TID 0000.0001) %MON trcstat_ptracer30_mean       =   5.7717530273104E-10
(PID.TID 0000.0001) %MON trcstat_ptracer30_sd         =   1.1363530622938E-11
(PID.TID 0000.0001) %MON trcstat_ptracer30_del2       =   0.0000000000000E+00
(PID.TID 0000.0001) %MON trcstat_ptracer31_max        =   5.5907790054755E-10
(PID.TID 0000.0001) %MON trcstat_ptracer31_min        =   5.3741619521649E-10
(PID.TID 0000.0001) %MON trcstat_ptracer31_mean       =   5.4097611560130E-10
(PID.TID 0000.0001) %MON trcstat_ptracer31_sd         =   5.8710877851246E-12
(PID.TID 0000.0001) %MON trcstat_ptracer31_del2       =   0.0000000000000E+00
(PID.TID 0000.0001) %MON trcstat_ptracer32_max        =   5.4090225532156E-10
(PID.TID 0000.0001) %MON trcstat_ptracer32_min        =   5.2591175484762E-10
(PID.TID 0000.0001) %MON trcstat_ptracer32_mean       =   5.2831870108896E-10
(PID.TID 0000.0001) %MON trcstat_ptracer32_sd         =   4.0631169376107E-12
(PID.TID 0000.0001) %MON trcstat_ptracer32_del2       =   0.0000000000000E+00
(PID.TID 0000.0001) %MON trcstat_ptracer33_max        =   5.2686154992436E-10
(PID.TID 0000.0001) %MON trcstat_ptracer33_min        =   5.1682953084275E-10
(PID.TID 0000.0001) %MON trcstat_ptracer33_mean       =   5.1840252281287E-10
(PID.TID 0000.0001) %MON trcstat_ptracer33_sd         =   2.6998019992615E-12
(PID.TID 0000.0001) %MON trcstat_ptracer33_del2       =   0.0000000000000E+00
(PID.TID 0000.0001) %MON trcstat_ptracer34_max        =   5.1607627856249E-10
(PID.TID 0000.0001) %MON trcstat_ptracer34_min        =   5.0973205460795E-10
(PID.TID 0000.0001) %MON trcstat_ptracer34_mean       =   5.1070643249747E-10
(PID.TID 0000.0001) %MON trcstat_ptracer34_sd         =   1.6816178760370E-12
(PID.TID 0000.0001) %MON trcstat_ptracer34_del2       =   0.0000000000000E+00
(PID.TID 0000.0001) %MON trcstat_ptracer35_max        =   5.0788970975135E-10
(PID.TID 0000.0001) %MON trcstat_ptracer35_min        =   5.0332238826966E-10
(PID.TID 0000.0001) %MON trcstat_ptracer35_mean       =   5.0480325214404E-10
(PID.TID 0000.0001) %MON trcstat_ptracer35_sd         =   9.4043565505764E-13
(PID.TID 0000.0001) %MON trcstat_ptracer35_del2       =   0.0000000000000E+00
(PID.TID 0000.0001) %MON trcstat_ptracer36_max        =   5.0178410003875E-10
(PID.TID 0000.0001) %MON trcstat_ptracer36_min        =   4.9577357984211E-10
(PID.TID 0000.0001) %MON trcstat_ptracer36_mean       =   5.0034384952191E-10
(PID.TID 0000.0001) %MON trcstat_ptracer36_sd         =   4.7740964731054E-13
(PID.TID 0000.0001) %MON trcstat_ptracer36_del2       =   0.0000000000000E+00
(PID.TID 0000.0001) %MON trcstat_ptracer37_max        =   4.9868524158227E-10
(PID.TID 0000.0001) %MON trcstat_ptracer37_min        =   4.9809419631376E-10
(PID.TID 0000.0001) %MON trcstat_ptracer37_mean       =   4.9860325412893E-10
(PID.TID 0000.0001) %MON trcstat_ptracer37_sd         =   1.6169411921081E-13
(PID.TID 0000.0001) %MON trcstat_ptracer37_del2       =   0.0000000000000E+00
(PID.TID 0000.0001) %MON trcstat_ptracer38_max        =   5.3102213121273E-14
(PID.TID 0000.0001) %MON trcstat_ptracer38_min        =   2.9776026211817E-14
(PID.TID 0000.0001) %MON trcstat_ptracer38_mean       =   4.2946801915119E-14
(PID.TID 0000.0001) %MON trcstat_ptracer38_sd         =   8.4894835990361E-15
(PID.TID 0000.0001) %MON trcstat_ptracer38_del2       =   0.0000000000000E+00
(PID.TID 0000.0001) %MON trcstat_ptracer39_max        =   4.9672682136877E-14
(PID.TID 0000.0001) %MON trcstat_ptracer39_min        =   2.9775990996874E-14
(PID.TID 0000.0001) %MON trcstat_ptracer39_mean       =   4.0860107238020E-14
(PID.TID 0000.0001) %MON trcstat_ptracer39_sd         =   7.1616956136906E-15
(PID.TID 0000.0001) %MON trcstat_ptracer39_del2       =   0.0000000000000E+00
(PID.TID 0000.0001) %MON trcstat_ptracer40_max        =   4.6595636345207E-14
(PID.TID 0000.0001) %MON trcstat_ptracer40_min        =   2.9775949130103E-14
(PID.TID 0000.0001) %MON trcstat_ptracer40_mean       =   3.9042368953444E-14
(PID.TID 0000.0001) %MON trcstat_ptracer40_sd         =   6.0003216697829E-15
(PID.TID 0000.0001) %MON trcstat_ptracer40_del2       =   0.0000000000000E+00
(PID.TID 0000.0001) %MON trcstat_ptracer41_max        =   4.3886242908888E-14
(PID.TID 0000.0001) %MON trcstat_ptracer41_min        =   2.9775921428422E-14
(PID.TID 0000.0001) %MON trcstat_ptracer41_mean       =   3.7476109425781E-14
(PID.TID 0000.0001) %MON trcstat_ptracer41_sd         =   4.9959801356606E-15
(PID.TID 0000.0001) %MON trcstat_ptracer41_del2       =   0.0000000000000E+00
(PID.TID 0000.0001) %MON trcstat_ptracer42_max        =   4.1516762388684E-14
(PID.TID 0000.0001) %MON trcstat_ptracer42_min        =   2.9775903682242E-14
(PID.TID 0000.0001) %MON trcstat_ptracer42_mean       =   3.6135031982160E-14
(PID.TID 0000.0001) %MON trcstat_ptracer42_sd         =   4.1331999658933E-15
(PID.TID 0000.0001) %MON trcstat_ptracer42_del2       =   0.0000000000000E+00
(PID.TID 0000.0001) %MON trcstat_ptracer43_max        =   3.9471484478498E-14
(PID.TID 0000.0001) %MON trcstat_ptracer43_min        =   2.9775892869660E-14
(PID.TID 0000.0001) %MON trcstat_ptracer43_mean       =   3.4995001965238E-14
(PID.TID 0000.0001) %MON trcstat_ptracer43_sd         =   3.3976890647246E-15
(PID.TID 0000.0001) %MON trcstat_ptracer43_del2       =   0.0000000000000E+00
(PID.TID 0000.0001) %MON trcstat_ptracer44_max        =   3.7723031659345E-14
(PID.TID 0000.0001) %MON trcstat_ptracer44_min        =   2.9775886800684E-14
(PID.TID 0000.0001) %MON trcstat_ptracer44_mean       =   3.4033011622113E-14
(PID.TID 0000.0001) %MON trcstat_ptracer44_sd         =   2.7755406637420E-15
(PID.TID 0000.0001) %MON trcstat_ptracer44_del2       =   0.0000000000000E+00
(PID.TID 0000.0001) %MON trcstat_ptracer45_max        =   3.6242805890822E-14
(PID.TID 0000.0001) %MON trcstat_ptracer45_min        =   2.9775883864184E-14
(PID.TID 0000.0001) %MON trcstat_ptracer45_mean       =   3.3226664938209E-14
(PID.TID 0000.0001) %MON trcstat_ptracer45_sd         =   2.2529723861134E-15
(PID.TID 0000.0001) %MON trcstat_ptracer45_del2       =   0.0000000000000E+00
(PID.TID 0000.0001) %MON trcstat_ptracer46_max        =   3.4999611705559E-14
(PID.TID 0000.0001) %MON trcstat_ptracer46_min        =   2.9775882869838E-14
(PID.TID 0000.0001) %MON trcstat_ptracer46_mean       =   3.2554984037618E-14
(PID.TID 0000.0001) %MON trcstat_ptracer46_sd         =   1.8168604177408E-15
(PID.TID 0000.0001) %MON trcstat_ptracer46_del2       =   0.0000000000000E+00
(PID.TID 0000.0001) %MON trcstat_ptracer47_max        =   3.3110551043549E-14
(PID.TID 0000.0001) %MON trcstat_ptracer47_min        =   2.9775883404819E-14
(PID.TID 0000.0001) %MON trcstat_ptracer47_mean       =   3.1541370780656E-14
(PID.TID 0000.0001) %MON trcstat_ptracer47_sd         =   1.1569515854340E-15
(PID.TID 0000.0001) %MON trcstat_ptracer47_del2       =   0.0000000000000E+00
(PID.TID 0000.0001) %MON trcstat_ptracer48_max        =   3.2411285681094E-14
(PID.TID 0000.0001) %MON trcstat_ptracer48_min        =   2.9775883803275E-14
(PID.TID 0000.0001) %MON trcstat_ptracer48_mean       =   3.1167424588226E-14
(PID.TID 0000.0001) %MON trcstat_ptracer48_sd         =   9.1267774454619E-16
(PID.TID 0000.0001) %MON trcstat_ptracer48_del2       =   0.0000000000000E+00
(PID.TID 0000.0001) %MON trcstat_ptracer49_max        =   3.1842220281159E-14
(PID.TID 0000.0001) %MON trcstat_ptracer49_min        =   2.9775883796960E-14
(PID.TID 0000.0001) %MON trcstat_ptracer49_mean       =   3.0863962170250E-14
(PID.TID 0000.0001) %MON trcstat_ptracer49_sd         =   7.1388483363800E-16
(PID.TID 0000.0001) %MON trcstat_ptracer49_del2       =   0.0000000000000E+00
(PID.TID 0000.0001) %MON trcstat_ptracer50_max        =   3.1382086213234E-14
(PID.TID 0000.0001) %MON trcstat_ptracer50_min        =   2.9775883175618E-14
(PID.TID 0000.0001) %MON trcstat_ptracer50_mean       =   3.0619602672704E-14
(PID.TID 0000.0001) %MON trcstat_ptracer50_sd         =   5.5322417419994E-16
(PID.TID 0000.0001) %MON trcstat_ptracer50_del2       =   0.0000000000000E+00
(PID.TID 0000.0001) %MON trcstat_ptracer51_max        =   3.1013149354267E-14
(PID.TID 0000.0001) %MON trcstat_ptracer51_min        =   2.9775881837793E-14
(PID.TID 0000.0001) %MON trcstat_ptracer51_mean       =   3.0424487895881E-14
(PID.TID 0000.0001) %MON trcstat_ptracer51_sd         =   4.2433582807357E-16
(PID.TID 0000.0001) %MON trcstat_ptracer51_del2       =   0.0000000000000E+00
(PID.TID 0000.0001) %MON trcstat_ptracer52_max        =   3.0720900845474E-14
(PID.TID 0000.0001) %MON trcstat_ptracer52_min        =   2.9775879779716E-14
(PID.TID 0000.0001) %MON trcstat_ptracer52_mean       =   3.0270102780560E-14
(PID.TID 0000.0001) %MON trcstat_ptracer52_sd         =   3.2177494104373E-16
(PID.TID 0000.0001) %MON trcstat_ptracer52_del2       =   0.0000000000000E+00
(PID.TID 0000.0001) %MON trcstat_ptracer53_max        =   2.9921114816097E-14
(PID.TID 0000.0001) %MON trcstat_ptracer53_min        =   2.9885652099606E-14
(PID.TID 0000.0001) %MON trcstat_ptracer53_mean       =   2.9916195568844E-14
(PID.TID 0000.0001) %MON trcstat_ptracer53_sd         =   9.7016472567930E-18
(PID.TID 0000.0001) %MON trcstat_ptracer53_del2       =   0.0000000000000E+00
(PID.TID 0000.0001) %MON trcstat_ptracer54_max        =   2.2005775840543E-09
(PID.TID 0000.0001) %MON trcstat_ptracer54_min        =   9.9252492337908E-10
(PID.TID 0000.0001) %MON trcstat_ptracer54_mean       =   1.0326088405462E-09
(PID.TID 0000.0001) %MON trcstat_ptracer54_sd         =   2.1263675120517E-10
(PID.TID 0000.0001) %MON trcstat_ptracer54_del2       =   0.0000000000000E+00
(PID.TID 0000.0001) %MON trcstat_ptracer55_max        =   2.2094712393927E-09
(PID.TID 0000.0001) %MON trcstat_ptracer55_min        =   9.9252492337908E-10
(PID.TID 0000.0001) %MON trcstat_ptracer55_mean       =   1.0317291160322E-09
(PID.TID 0000.0001) %MON trcstat_ptracer55_sd         =   2.0813932289878E-10
(PID.TID 0000.0001) %MON trcstat_ptracer55_del2       =   0.0000000000000E+00
(PID.TID 0000.0001) %MON trcstat_ptracer56_max        =   1.9862392974432E-09
(PID.TID 0000.0001) %MON trcstat_ptracer56_min        =   9.9252492337908E-10
(PID.TID 0000.0001) %MON trcstat_ptracer56_mean       =   1.0255033048796E-09
(PID.TID 0000.0001) %MON trcstat_ptracer56_sd         =   1.7492944905189E-10
(PID.TID 0000.0001) %MON trcstat_ptracer56_del2       =   0.0000000000000E+00
(PID.TID 0000.0001) %MON trcstat_ptracer57_max        =   1.9072120755021E-09
(PID.TID 0000.0001) %MON trcstat_ptracer57_min        =   9.9252492337908E-10
(PID.TID 0000.0001) %MON trcstat_ptracer57_mean       =   1.0225633554999E-09
(PID.TID 0000.0001) %MON trcstat_ptracer57_sd         =   1.5936450371776E-10
(PID.TID 0000.0001) %MON trcstat_ptracer57_del2       =   0.0000000000000E+00
(PID.TID 0000.0001) %MON trcstat_ptracer58_max        =   1.7121354130853E-09
(PID.TID 0000.0001) %MON trcstat_ptracer58_min        =   9.9252492337908E-10
(PID.TID 0000.0001) %MON trcstat_ptracer58_mean       =   1.0164377057269E-09
(PID.TID 0000.0001) %MON trcstat_ptracer58_sd         =   1.2682349063539E-10
(PID.TID 0000.0001) %MON trcstat_ptracer58_del2       =   0.0000000000000E+00
(PID.TID 0000.0001) %MON trcstat_ptracer59_max        =   1.5522825072985E-09
(PID.TID 0000.0001) %MON trcstat_ptracer59_min        =   9.9252492337908E-10
(PID.TID 0000.0001) %MON trcstat_ptracer59_mean       =   1.0114032372802E-09
(PID.TID 0000.0001) %MON trcstat_ptracer59_sd         =   1.0008422942968E-10
(PID.TID 0000.0001) %MON trcstat_ptracer59_del2       =   0.0000000000000E+00
(PID.TID 0000.0001) %MON trcstat_ptracer60_max        =   1.4223319654771E-09
(PID.TID 0000.0001) %MON trcstat_ptracer60_min        =   9.9252492337908E-10
(PID.TID 0000.0001) %MON trcstat_ptracer60_mean       =   1.0070486240253E-09
(PID.TID 0000.0001) %MON trcstat_ptracer60_sd         =   7.6979963635537E-11
(PID.TID 0000.0001) %MON trcstat_ptracer60_del2       =   0.0000000000000E+00
(PID.TID 0000.0001) %MON trcstat_ptracer61_max        =   1.3188631181419E-09
(PID.TID 0000.0001) %MON trcstat_ptracer61_min        =   9.9252492337908E-10
(PID.TID 0000.0001) %MON trcstat_ptracer61_mean       =   1.0035679296403E-09
(PID.TID 0000.0001) %MON trcstat_ptracer61_sd         =   5.8508861437231E-11
(PID.TID 0000.0001) %MON trcstat_ptracer61_del2       =   0.0000000000000E+00
(PID.TID 0000.0001) %MON trcstat_ptracer62_max        =   1.2372829404698E-09
(PID.TID 0000.0001) %MON trcstat_ptracer62_min        =   9.9252492337908E-10
(PID.TID 0000.0001) %MON trcstat_ptracer62_mean       =   1.0008166372677E-09
(PID.TID 0000.0001) %MON trcstat_ptracer62_sd         =   4.3903096642641E-11
(PID.TID 0000.0001) %MON trcstat_ptracer62_del2       =   0.0000000000000E+00
(PID.TID 0000.0001) %MON trcstat_ptracer63_max        =   1.1240144358377E-09
(PID.TID 0000.0001) %MON trcstat_ptracer63_min        =   9.9252492337908E-10
(PID.TID 0000.0001) %MON trcstat_ptracer63_mean       =   9.9701409835173E-10
(PID.TID 0000.0001) %MON trcstat_ptracer63_sd         =   2.3691516367065E-11
(PID.TID 0000.0001) %MON trcstat_ptracer63_del2       =   0.0000000000000E+00
(PID.TID 0000.0001) %MON trcstat_ptracer64_max        =   1.0855534433240E-09
(PID.TID 0000.0001) %MON trcstat_ptracer64_min        =   9.9252492337908E-10
(PID.TID 0000.0001) %MON trcstat_ptracer64_mean       =   9.9570273483931E-10
(PID.TID 0000.0001) %MON trcstat_ptracer64_sd         =   1.6705231578563E-11
(PID.TID 0000.0001) %MON trcstat_ptracer64_del2       =   0.0000000000000E+00
(PID.TID 0000.0001) %MON trcstat_ptracer65_max        =   1.0560038034281E-09
(PID.TID 0000.0001) %MON trcstat_ptracer65_min        =   9.9252492337908E-10
(PID.TID 0000.0001) %MON trcstat_ptracer65_mean       =   9.9469499191667E-10
(PID.TID 0000.0001) %MON trcstat_ptracer65_sd         =   1.1320000176772E-11
(PID.TID 0000.0001) %MON trcstat_ptracer65_del2       =   0.0000000000000E+00
(PID.TID 0000.0001) %MON trcstat_ptracer66_max        =   1.0334764182977E-09
(PID.TID 0000.0001) %MON trcstat_ptracer66_min        =   9.9252492337908E-10
(PID.TID 0000.0001) %MON trcstat_ptracer66_mean       =   9.9392673045921E-10
(PID.TID 0000.0001) %MON trcstat_ptracer66_sd         =   7.1948864614692E-12
(PID.TID 0000.0001) %MON trcstat_ptracer66_del2       =   0.0000000000000E+00
(PID.TID 0000.0001) %MON trcstat_ptracer67_max        =   1.0165022838336E-09
(PID.TID 0000.0001) %MON trcstat_ptracer67_min        =   9.9252492337908E-10
(PID.TID 0000.0001) %MON trcstat_ptracer67_mean       =   9.9334713246983E-10
(PID.TID 0000.0001) %MON trcstat_ptracer67_sd         =   4.0651834989743E-12
(PID.TID 0000.0001) %MON trcstat_ptracer67_del2       =   0.0000000000000E+00
(PID.TID 0000.0001) %MON trcstat_ptracer68_max        =   1.0038837687118E-09
(PID.TID 0000.0001) %MON trcstat_ptracer68_min        =   9.9162352078209E-10
(PID.TID 0000.0001) %MON trcstat_ptracer68_mean       =   9.9291607055055E-10
(PID.TID 0000.0001) %MON trcstat_ptracer68_sd         =   1.7646780552216E-12
(PID.TID 0000.0001) %MON trcstat_ptracer68_del2       =   0.0000000000000E+00
(PID.TID 0000.0001) %MON trcstat_ptracer69_max        =   4.4104945321646E-10
(PID.TID 0000.0001) %MON trcstat_ptracer69_min        =   4.3499623507171E-10
(PID.TID 0000.0001) %MON trcstat_ptracer69_mean       =   4.3964721653524E-10
(PID.TID 0000.0001) %MON trcstat_ptracer69_sd         =   1.6330828758153E-12
(PID.TID 0000.0001) %MON trcstat_ptracer69_del2       =   0.0000000000000E+00
(PID.TID 0000.0001) %MON trcstat_ptracer70_max        =   3.0123722222256E-10
(PID.TID 0000.0001) %MON trcstat_ptracer70_min        =   2.6868219480748E-10
(PID.TID 0000.0001) %MON trcstat_ptracer70_mean       =   3.0005341008549E-10
(PID.TID 0000.0001) %MON trcstat_ptracer70_sd         =   1.7689914351133E-12
(PID.TID 0000.0001) %MON trcstat_ptracer70_del2       =   0.0000000000000E+00
(PID.TID 0000.0001) %MON trcstat_ptracer71_max        =   2.7163429247208E-01
(PID.TID 0000.0001) %MON trcstat_ptracer71_min        =   3.9767593173184E-11
(PID.TID 0000.0001) %MON trcstat_ptracer71_mean       =   3.2948821739063E-02
(PID.TID 0000.0001) %MON trcstat_ptracer71_sd         =   8.3375166407111E-02
(PID.TID 0000.0001) %MON trcstat_ptracer71_del2       =   0.0000000000000E+00
(PID.TID 0000.0001) %MON trcstat_ptracer72_max        =   3.0166500456935E-02
(PID.TID 0000.0001) %MON trcstat_ptracer72_min        =   3.8767304966812E-07
(PID.TID 0000.0001) %MON trcstat_ptracer72_mean       =   1.4856377808441E-02
(PID.TID 0000.0001) %MON trcstat_ptracer72_sd         =   1.1036124529656E-02
(PID.TID 0000.0001) %MON trcstat_ptracer72_del2       =   0.0000000000000E+00
(PID.TID 0000.0001) %MON trcstat_ptracer73_max        =   1.6977143662727E-05
(PID.TID 0000.0001) %MON trcstat_ptracer73_min        =   2.0552996554217E-15
(PID.TID 0000.0001) %MON trcstat_ptracer73_mean       =   2.0593013571673E-06
(PID.TID 0000.0001) %MON trcstat_ptracer73_sd         =   5.2109478960193E-06
(PID.TID 0000.0001) %MON trcstat_ptracer73_del2       =   0.0000000000000E+00
(PID.TID 0000.0001) %MON trcstat_ptracer74_max        =   1.8854063514729E-06
(PID.TID 0000.0001) %MON trcstat_ptracer74_min        =   2.4229372796531E-11
(PID.TID 0000.0001) %MON trcstat_ptracer74_mean       =   9.2852362081755E-07
(PID.TID 0000.0001) %MON trcstat_ptracer74_sd         =   6.8975780831673E-07
(PID.TID 0000.0001) %MON trcstat_ptracer74_del2       =   0.0000000000000E+00
(PID.TID 0000.0001) // =======================================================
(PID.TID 0000.0001) // End MONITOR ptracers field statistics
(PID.TID 0000.0001) // =======================================================
(PID.TID 0000.0001) // =======================================================
(PID.TID 0000.0001) // Begin MONITOR dynamic field statistics
(PID.TID 0000.0001) // =======================================================
(PID.TID 0000.0001) %MON time_tsnumber                =                     4
(PID.TID 0000.0001) %MON time_secondsf                =   4.3200000000000E+04
(PID.TID 0000.0001) %MON dynstat_eta_max              =   0.0000000000000E+00
(PID.TID 0000.0001) %MON dynstat_eta_min              =   0.0000000000000E+00
(PID.TID 0000.0001) %MON dynstat_eta_mean             =   0.0000000000000E+00
(PID.TID 0000.0001) %MON dynstat_eta_sd               =   0.0000000000000E+00
(PID.TID 0000.0001) %MON dynstat_eta_del2             =   0.0000000000000E+00
(PID.TID 0000.0001) %MON dynstat_uvel_max             =   0.0000000000000E+00
(PID.TID 0000.0001) %MON dynstat_uvel_min             =   0.0000000000000E+00
(PID.TID 0000.0001) %MON dynstat_uvel_mean            =   0.0000000000000E+00
(PID.TID 0000.0001) %MON dynstat_uvel_sd              =   0.0000000000000E+00
(PID.TID 0000.0001) %MON dynstat_uvel_del2            =   0.0000000000000E+00
(PID.TID 0000.0001) %MON dynstat_vvel_max             =   0.0000000000000E+00
(PID.TID 0000.0001) %MON dynstat_vvel_min             =   0.0000000000000E+00
(PID.TID 0000.0001) %MON dynstat_vvel_mean            =   0.0000000000000E+00
(PID.TID 0000.0001) %MON dynstat_vvel_sd              =   0.0000000000000E+00
(PID.TID 0000.0001) %MON dynstat_vvel_del2            =   0.0000000000000E+00
(PID.TID 0000.0001) %MON dynstat_wvel_max             =   0.0000000000000E+00
(PID.TID 0000.0001) %MON dynstat_wvel_min             =   0.0000000000000E+00
(PID.TID 0000.0001) %MON dynstat_wvel_mean            =   0.0000000000000E+00
(PID.TID 0000.0001) %MON dynstat_wvel_sd              =   0.0000000000000E+00
(PID.TID 0000.0001) %MON dynstat_wvel_del2            =   0.0000000000000E+00
(PID.TID 0000.0001) %MON dynstat_theta_max            =   6.4955094188052E+00
(PID.TID 0000.0001) %MON dynstat_theta_min            =  -9.3886553567890E-01
(PID.TID 0000.0001) %MON dynstat_theta_mean           =   1.5612872667614E-01
(PID.TID 0000.0001) %MON dynstat_theta_sd             =   2.0856205097386E+00
(PID.TID 0000.0001) %MON dynstat_theta_del2           =   0.0000000000000E+00
(PID.TID 0000.0001) %MON dynstat_salt_max             =   3.5000000000000E+01
(PID.TID 0000.0001) %MON dynstat_salt_min             =   3.5000000000000E+01
(PID.TID 0000.0001) %MON dynstat_salt_mean            =   3.5000000000000E+01
(PID.TID 0000.0001) %MON dynstat_salt_sd              =   7.1054273576010E-15
(PID.TID 0000.0001) %MON dynstat_salt_del2            =   0.0000000000000E+00
(PID.TID 0000.0001) %MON dynstat_sst_max              =   6.4955094188052E+00
(PID.TID 0000.0001) %MON dynstat_sst_min              =   6.4955094188052E+00
(PID.TID 0000.0001) %MON dynstat_sst_mean             =   6.4955094188052E+00
(PID.TID 0000.0001) %MON dynstat_sst_sd               =   0.0000000000000E+00
(PID.TID 0000.0001) %MON dynstat_sst_del2             =   0.0000000000000E+00
(PID.TID 0000.0001) %MON dynstat_sss_max              =   3.5000000000000E+01
(PID.TID 0000.0001) %MON dynstat_sss_min              =   3.5000000000000E+01
(PID.TID 0000.0001) %MON dynstat_sss_mean             =   3.5000000000000E+01
(PID.TID 0000.0001) %MON dynstat_sss_sd               =   0.0000000000000E+00
(PID.TID 0000.0001) %MON dynstat_sss_del2             =   0.0000000000000E+00
(PID.TID 0000.0001) %MON forcing_qnet_max             =   0.0000000000000E+00
(PID.TID 0000.0001) %MON forcing_qnet_min             =   0.0000000000000E+00
(PID.TID 0000.0001) %MON forcing_qnet_mean            =   0.0000000000000E+00
(PID.TID 0000.0001) %MON forcing_qnet_sd              =   0.0000000000000E+00
(PID.TID 0000.0001) %MON forcing_qnet_del2            =   0.0000000000000E+00
(PID.TID 0000.0001) %MON forcing_qsw_max              =   0.0000000000000E+00
(PID.TID 0000.0001) %MON forcing_qsw_min              =   0.0000000000000E+00
(PID.TID 0000.0001) %MON forcing_qsw_mean             =   0.0000000000000E+00
(PID.TID 0000.0001) %MON forcing_qsw_sd               =   0.0000000000000E+00
(PID.TID 0000.0001) %MON forcing_qsw_del2             =   0.0000000000000E+00
(PID.TID 0000.0001) %MON forcing_empmr_max            =   0.0000000000000E+00
(PID.TID 0000.0001) %MON forcing_empmr_min            =   0.0000000000000E+00
(PID.TID 0000.0001) %MON forcing_empmr_mean           =   0.0000000000000E+00
(PID.TID 0000.0001) %MON forcing_empmr_sd             =   0.0000000000000E+00
(PID.TID 0000.0001) %MON forcing_empmr_del2           =   0.0000000000000E+00
(PID.TID 0000.0001) %MON forcing_fu_max               =   2.2681041941047E+00
(PID.TID 0000.0001) %MON forcing_fu_min               =   2.2681041941047E+00
(PID.TID 0000.0001) %MON forcing_fu_mean              =   2.2681041941047E+00
(PID.TID 0000.0001) %MON forcing_fu_sd                =   0.0000000000000E+00
(PID.TID 0000.0001) %MON forcing_fu_del2              =   0.0000000000000E+00
(PID.TID 0000.0001) %MON forcing_fv_max               =   1.1514206402004E+00
(PID.TID 0000.0001) %MON forcing_fv_min               =   1.1514206402004E+00
(PID.TID 0000.0001) %MON forcing_fv_mean              =   1.1514206402004E+00
(PID.TID 0000.0001) %MON forcing_fv_sd                =   0.0000000000000E+00
(PID.TID 0000.0001) %MON forcing_fv_del2              =   0.0000000000000E+00
(PID.TID 0000.0001) %MON advcfl_uvel_max              =   0.0000000000000E+00
(PID.TID 0000.0001) %MON advcfl_vvel_max              =   0.0000000000000E+00
(PID.TID 0000.0001) %MON advcfl_wvel_max              =   0.0000000000000E+00
(PID.TID 0000.0001) %MON advcfl_W_hf_max              =   0.0000000000000E+00
(PID.TID 0000.0001) %MON pe_b_mean                    =   0.0000000000000E+00
(PID.TID 0000.0001) %MON ke_max                       =   0.0000000000000E+00
(PID.TID 0000.0001) %MON ke_mean                      =   0.0000000000000E+00
(PID.TID 0000.0001) %MON ke_vol                       =   4.1199767883485E+13
(PID.TID 0000.0001) %MON vort_r_min                   =   0.0000000000000E+00
(PID.TID 0000.0001) %MON vort_r_max                   =   0.0000000000000E+00
(PID.TID 0000.0001) %MON vort_a_mean                  =  -4.5067801836625E-05
(PID.TID 0000.0001) %MON vort_a_sd                    =  -4.1359030627651E-25
(PID.TID 0000.0001) %MON vort_p_mean                  =  -4.5067801836625E-05
(PID.TID 0000.0001) %MON vort_p_sd                    =   0.0000000000000E+00
(PID.TID 0000.0001) %MON surfExpan_theta_mean         =   0.0000000000000E+00
(PID.TID 0000.0001) %MON surfExpan_salt_mean          =   0.0000000000000E+00
(PID.TID 0000.0001) // =======================================================
(PID.TID 0000.0001) // End MONITOR dynamic field statistics
(PID.TID 0000.0001) // =======================================================
(PID.TID 0000.0001) // =======================================================
(PID.TID 0000.0001) // Begin MONITOR ptracer field statistics
(PID.TID 0000.0001) // =======================================================
(PID.TID 0000.0001) %MON trcstat_ptracer01_max        =   2.1623998898884E+03
(PID.TID 0000.0001) %MON trcstat_ptracer01_min        =   2.0972926832161E+03
(PID.TID 0000.0001) %MON trcstat_ptracer01_mean       =   2.1557233177768E+03
(PID.TID 0000.0001) %MON trcstat_ptracer01_sd         =   1.1436552843829E+01
(PID.TID 0000.0001) %MON trcstat_ptracer01_del2       =   0.0000000000000E+00
(PID.TID 0000.0001) %MON trcstat_ptracer02_max        =   1.5341495686289E+01
(PID.TID 0000.0001) %MON trcstat_ptracer02_min        =   1.1901694567873E+01
(PID.TID 0000.0001) %MON trcstat_ptracer02_mean       =   1.4471950697618E+01
(PID.TID 0000.0001) %MON trcstat_ptracer02_sd         =   9.1931337726241E-01
(PID.TID 0000.0001) %MON trcstat_ptracer02_del2       =   0.0000000000000E+00
(PID.TID 0000.0001) %MON trcstat_ptracer03_max        =   3.7780302313096E-02
(PID.TID 0000.0001) %MON trcstat_ptracer03_min        =   2.7465703319735E-10
(PID.TID 0000.0001) %MON trcstat_ptracer03_mean       =   7.7378026400541E-03
(PID.TID 0000.0001) %MON trcstat_ptracer03_sd         =   1.0719195591879E-02
(PID.TID 0000.0001) %MON trcstat_ptracer03_del2       =   0.0000000000000E+00
(PID.TID 0000.0001) %MON trcstat_ptracer04_max        =   1.6469228565782E-03
(PID.TID 0000.0001) %MON trcstat_ptracer04_min        =   1.2519210309276E-09
(PID.TID 0000.0001) %MON trcstat_ptracer04_mean       =   2.9213098965188E-04
(PID.TID 0000.0001) %MON trcstat_ptracer04_sd         =   4.3405086907231E-04
(PID.TID 0000.0001) %MON trcstat_ptracer04_del2       =   0.0000000000000E+00
(PID.TID 0000.0001) %MON trcstat_ptracer05_max        =   9.1622557324542E-04
(PID.TID 0000.0001) %MON trcstat_ptracer05_min        =   6.8832048235856E-13
(PID.TID 0000.0001) %MON trcstat_ptracer05_mean       =   5.7979430185066E-04
(PID.TID 0000.0001) %MON trcstat_ptracer05_sd         =   3.7870316328457E-04
(PID.TID 0000.0001) %MON trcstat_ptracer05_del2       =   0.0000000000000E+00
(PID.TID 0000.0001) %MON trcstat_ptracer06_max        =   5.2760200689036E-09
(PID.TID 0000.0001) %MON trcstat_ptracer06_min        =   4.6478420807121E-09
(PID.TID 0000.0001) %MON trcstat_ptracer06_mean       =   5.1056528180770E-09
(PID.TID 0000.0001) %MON trcstat_ptracer06_sd         =   1.7367577153590E-10
(PID.TID 0000.0001) %MON trcstat_ptracer06_del2       =   0.0000000000000E+00
(PID.TID 0000.0001) %MON trcstat_ptracer07_max        =   5.4883203674595E-09
(PID.TID 0000.0001) %MON trcstat_ptracer07_min        =   4.9185108465297E-09
(PID.TID 0000.0001) %MON trcstat_ptracer07_mean       =   5.3442084412161E-09
(PID.TID 0000.0001) %MON trcstat_ptracer07_sd         =   1.5578295294747E-10
(PID.TID 0000.0001) %MON trcstat_ptracer07_del2       =   0.0000000000000E+00
(PID.TID 0000.0001) %MON trcstat_ptracer08_max        =   5.6751318051163E-09
(PID.TID 0000.0001) %MON trcstat_ptracer08_min        =   5.1793728851736E-09
(PID.TID 0000.0001) %MON trcstat_ptracer08_mean       =   5.5572130340396E-09
(PID.TID 0000.0001) %MON trcstat_ptracer08_sd         =   1.3426617829121E-10
(PID.TID 0000.0001) %MON trcstat_ptracer08_del2       =   0.0000000000000E+00
(PID.TID 0000.0001) %MON trcstat_ptracer09_max        =   5.8382239389789E-09
(PID.TID 0000.0001) %MON trcstat_ptracer09_min        =   5.4219494608167E-09
(PID.TID 0000.0001) %MON trcstat_ptracer09_mean       =   5.7444558250545E-09
(PID.TID 0000.0001) %MON trcstat_ptracer09_sd         =   1.1181062958235E-10
(PID.TID 0000.0001) %MON trcstat_ptracer09_del2       =   0.0000000000000E+00
(PID.TID 0000.0001) %MON trcstat_ptracer10_max        =   5.9774115472434E-09
(PID.TID 0000.0001) %MON trcstat_ptracer10_min        =   5.6384386529784E-09
(PID.TID 0000.0001) %MON trcstat_ptracer10_mean       =   5.9047499863788E-09
(PID.TID 0000.0001) %MON trcstat_ptracer10_sd         =   9.0455417928127E-11
(PID.TID 0000.0001) %MON trcstat_ptracer10_del2       =   0.0000000000000E+00
(PID.TID 0000.0001) %MON trcstat_ptracer11_max        =   6.0943220489538E-09
(PID.TID 0000.0001) %MON trcstat_ptracer11_min        =   5.8253616111713E-09
(PID.TID 0000.0001) %MON trcstat_ptracer11_mean       =   6.0393418768077E-09
(PID.TID 0000.0001) %MON trcstat_ptracer11_sd         =   7.1227217279868E-11
(PID.TID 0000.0001) %MON trcstat_ptracer11_del2       =   0.0000000000000E+00
(PID.TID 0000.0001) %MON trcstat_ptracer12_max        =   6.1916370209892E-09
(PID.TID 0000.0001) %MON trcstat_ptracer12_min        =   5.9828801321720E-09
(PID.TID 0000.0001) %MON trcstat_ptracer12_mean       =   6.1508710360762E-09
(PID.TID 0000.0001) %MON trcstat_ptracer12_sd         =   5.4884209077276E-11
(PID.TID 0000.0001) %MON trcstat_ptracer12_del2       =   0.0000000000000E+00
(PID.TID 0000.0001) %MON trcstat_ptracer13_max        =   6.2719810392348E-09
(PID.TID 0000.0001) %MON trcstat_ptracer13_min        =   6.1130878577190E-09
(PID.TID 0000.0001) %MON trcstat_ptracer13_mean       =   6.2423457343515E-09
(PID.TID 0000.0001) %MON trcstat_ptracer13_sd         =   4.1419768017938E-11
(PID.TID 0000.0001) %MON trcstat_ptracer13_del2       =   0.0000000000000E+00
(PID.TID 0000.0001) %MON trcstat_ptracer14_max        =   6.3380684315763E-09
(PID.TID 0000.0001) %MON trcstat_ptracer14_min        =   6.2190837613389E-09
(PID.TID 0000.0001) %MON trcstat_ptracer14_mean       =   6.3166940891041E-09
(PID.TID 0000.0001) %MON trcstat_ptracer14_sd         =   3.0635632460026E-11
(PID.TID 0000.0001) %MON trcstat_ptracer14_del2       =   0.0000000000000E+00
(PID.TID 0000.0001) %MON trcstat_ptracer15_max        =   6.4354595798886E-09
(PID.TID 0000.0001) %MON trcstat_ptracer15_min        =   6.3720978373708E-09
(PID.TID 0000.0001) %MON trcstat_ptracer15_mean       =   6.4245995298779E-09
(PID.TID 0000.0001) %MON trcstat_ptracer15_sd         =   1.5709625486264E-11
(PID.TID 0000.0001) %MON trcstat_ptracer15_del2       =   0.0000000000000E+00
(PID.TID 0000.0001) %MON trcstat_ptracer16_max        =   6.4704657017737E-09
(PID.TID 0000.0001) %MON trcstat_ptracer16_min        =   6.4255146557372E-09
(PID.TID 0000.0001) %MON trcstat_ptracer16_mean       =   6.4626526390983E-09
(PID.TID 0000.0001) %MON trcstat_ptracer16_sd         =   1.0880359754661E-11
(PID.TID 0000.0001) %MON trcstat_ptracer16_del2       =   0.0000000000000E+00
(PID.TID 0000.0001) %MON trcstat_ptracer17_max        =   6.5056570650632E-09
(PID.TID 0000.0001) %MON trcstat_ptracer17_min        =   6.4672007778749E-09
(PID.TID 0000.0001) %MON trcstat_ptracer17_mean       =   6.4925939662335E-09
(PID.TID 0000.0001) %MON trcstat_ptracer17_sd         =   7.3763494631713E-12
(PID.TID 0000.0001) %MON trcstat_ptracer17_del2       =   0.0000000000000E+00
(PID.TID 0000.0001) %MON trcstat_ptracer18_max        =   6.5337033146599E-09
(PID.TID 0000.0001) %MON trcstat_ptracer18_min        =   6.4993919301459E-09
(PID.TID 0000.0001) %MON trcstat_ptracer18_mean       =   6.5159176989794E-09
(PID.TID 0000.0001) %MON trcstat_ptracer18_sd         =   4.9686066395956E-12
(PID.TID 0000.0001) %MON trcstat_ptracer18_del2       =   0.0000000000000E+00
(PID.TID 0000.0001) %MON trcstat_ptracer19_max        =   6.5531442294176E-09
(PID.TID 0000.0001) %MON trcstat_ptracer19_min        =   6.5156752816291E-09
(PID.TID 0000.0001) %MON trcstat_ptracer19_mean       =   6.5338654860101E-09
(PID.TID 0000.0001) %MON trcstat_ptracer19_sd         =   3.5489863002074E-12
(PID.TID 0000.0001) %MON trcstat_ptracer19_del2       =   0.0000000000000E+00
(PID.TID 0000.0001) %MON trcstat_ptracer20_max        =   6.5651157700359E-09
(PID.TID 0000.0001) %MON trcstat_ptracer20_min        =   6.5128582267158E-09
(PID.TID 0000.0001) %MON trcstat_ptracer20_mean       =   6.5474628514664E-09
(PID.TID 0000.0001) %MON trcstat_ptracer20_sd         =   3.1921882572704E-12
(PID.TID 0000.0001) %MON trcstat_ptracer20_del2       =   0.0000000000000E+00
(PID.TID 0000.0001) %MON trcstat_ptracer21_max        =   6.6017831294850E-09
(PID.TID 0000.0001) %MON trcstat_ptracer21_min        =   6.5913579957787E-09
(PID.TID 0000.0001) %MON trcstat_ptracer21_mean       =   6.6003361408631E-09
(PID.TID 0000.0001) %MON trcstat_ptracer21_sd         =   2.8536519024764E-12
(PID.TID 0000.0001) %MON trcstat_ptracer21_del2       =   0.0000000000000E+00
(PID.TID 0000.0001) %MON trcstat_ptracer22_max        =   1.3253599636117E-09
(PID.TID 0000.0001) %MON trcstat_ptracer22_min        =   1.0456807229220E-09
(PID.TID 0000.0001) %MON trcstat_ptracer22_mean       =   1.1194639315038E-09
(PID.TID 0000.0001) %MON trcstat_ptracer22_sd         =   7.6188391450651E-11
(PID.TID 0000.0001) %MON trcstat_ptracer22_del2       =   0.0000000000000E+00
(PID.TID 0000.0001) %MON trcstat_ptracer23_max        =   1.2081129340154E-09
(PID.TID 0000.0001) %MON trcstat_ptracer23_min        =   9.5456471910922E-10
(PID.TID 0000.0001) %MON trcstat_ptracer23_mean       =   1.0170776986413E-09
(PID.TID 0000.0001) %MON trcstat_ptracer23_sd         =   6.8548318865006E-11
(PID.TID 0000.0001) %MON trcstat_ptracer23_del2       =   0.0000000000000E+00
(PID.TID 0000.0001) %MON trcstat_ptracer24_max        =   1.0947277201595E-09
(PID.TID 0000.0001) %MON trcstat_ptracer24_min        =   8.7438814186349E-10
(PID.TID 0000.0001) %MON trcstat_ptracer24_mean       =   9.2562879729559E-10
(PID.TID 0000.0001) %MON trcstat_ptracer24_sd         =   5.9260216136330E-11
(PID.TID 0000.0001) %MON trcstat_ptracer24_del2       =   0.0000000000000E+00
(PID.TID 0000.0001) %MON trcstat_ptracer25_max        =   9.8961710632484E-10
(PID.TID 0000.0001) %MON trcstat_ptracer25_min        =   8.0439152501610E-10
(PID.TID 0000.0001) %MON trcstat_ptracer25_mean       =   8.4526257697476E-10
(PID.TID 0000.0001) %MON trcstat_ptracer25_sd         =   4.9618275402141E-11
(PID.TID 0000.0001) %MON trcstat_ptracer25_del2       =   0.0000000000000E+00
(PID.TID 0000.0001) %MON trcstat_ptracer26_max        =   8.9546384206594E-10
(PID.TID 0000.0001) %MON trcstat_ptracer26_min        =   7.4465436342753E-10
(PID.TID 0000.0001) %MON trcstat_ptracer26_mean       =   7.7641799834408E-10
(PID.TID 0000.0001) %MON trcstat_ptracer26_sd         =   4.0319512630004E-11
(PID.TID 0000.0001) %MON trcstat_ptracer26_del2       =   0.0000000000000E+00
(PID.TID 0000.0001) %MON trcstat_ptracer27_max        =   8.1418858936231E-10
(PID.TID 0000.0001) %MON trcstat_ptracer27_min        =   6.9447819467543E-10
(PID.TID 0000.0001) %MON trcstat_ptracer27_mean       =   7.1862477304272E-10
(PID.TID 0000.0001) %MON trcstat_ptracer27_sd         =   3.1968088014568E-11
(PID.TID 0000.0001) %MON trcstat_ptracer27_del2       =   0.0000000000000E+00
(PID.TID 0000.0001) %MON trcstat_ptracer28_max        =   7.4560544768803E-10
(PID.TID 0000.0001) %MON trcstat_ptracer28_min        =   6.5271212829521E-10
(PID.TID 0000.0001) %MON trcstat_ptracer28_mean       =   6.7071865046580E-10
(PID.TID 0000.0001) %MON trcstat_ptracer28_sd         =   2.4814640864390E-11
(PID.TID 0000.0001) %MON trcstat_ptracer28_del2       =   0.0000000000000E+00
(PID.TID 0000.0001) %MON trcstat_ptracer29_max        =   6.8890000000767E-10
(PID.TID 0000.0001) %MON trcstat_ptracer29_min        =   6.1822973804727E-10
(PID.TID 0000.0001) %MON trcstat_ptracer29_mean       =   6.3142770094867E-10
(PID.TID 0000.0001) %MON trcstat_ptracer29_sd         =   1.8901999536722E-11
(PID.TID 0000.0001) %MON trcstat_ptracer29_del2       =   0.0000000000000E+00
(PID.TID 0000.0001) %MON trcstat_ptracer30_max        =   6.4271759873001E-10
(PID.TID 0000.0001) %MON trcstat_ptracer30_min        =   5.8997880887529E-10
(PID.TID 0000.0001) %MON trcstat_ptracer30_mean       =   5.9949379091259E-10
(PID.TID 0000.0001) %MON trcstat_ptracer30_sd         =   1.4138979913498E-11
(PID.TID 0000.0001) %MON trcstat_ptracer30_del2       =   0.0000000000000E+00
(PID.TID 0000.0001) %MON trcstat_ptracer31_max        =   5.7599575669793E-10
(PID.TID 0000.0001) %MON trcstat_ptracer31_min        =   5.4847104041696E-10
(PID.TID 0000.0001) %MON trcstat_ptracer31_mean       =   5.5315613214603E-10
(PID.TID 0000.0001) %MON trcstat_ptracer31_sd         =   7.4431546310491E-12
(PID.TID 0000.0001) %MON trcstat_ptracer31_del2       =   0.0000000000000E+00
(PID.TID 0000.0001) %MON trcstat_ptracer32_max        =   5.5276787307312E-10
(PID.TID 0000.0001) %MON trcstat_ptracer32_min        =   5.3363735018427E-10
(PID.TID 0000.0001) %MON trcstat_ptracer32_mean       =   5.3681188935031E-10
(PID.TID 0000.0001) %MON trcstat_ptracer32_sd         =   5.1846312995634E-12
(PID.TID 0000.0001) %MON trcstat_ptracer32_del2       =   0.0000000000000E+00
(PID.TID 0000.0001) %MON trcstat_ptracer33_max        =   5.3470653716247E-10
(PID.TID 0000.0001) %MON trcstat_ptracer33_min        =   5.2187501924856E-10
(PID.TID 0000.0001) %MON trcstat_ptracer33_mean       =   5.2395187090166E-10
(PID.TID 0000.0001) %MON trcstat_ptracer33_sd         =   3.4620722733138E-12
(PID.TID 0000.0001) %MON trcstat_ptracer33_del2       =   0.0000000000000E+00
(PID.TID 0000.0001) %MON trcstat_ptracer34_max        =   5.2080819893043E-10
(PID.TID 0000.0001) %MON trcstat_ptracer34_min        =   5.1264709505395E-10
(PID.TID 0000.0001) %MON trcstat_ptracer34_mean       =   5.1393419273486E-10
(PID.TID 0000.0001) %MON trcstat_ptracer34_sd         =   2.1624048858324E-12
(PID.TID 0000.0001) %MON trcstat_ptracer34_del2       =   0.0000000000000E+00
(PID.TID 0000.0001) %MON trcstat_ptracer35_max        =   5.1020705287162E-10
(PID.TID 0000.0001) %MON trcstat_ptracer35_min        =   5.0533853323369E-10
(PID.TID 0000.0001) %MON trcstat_ptracer35_mean       =   5.0622548129445E-10
(PID.TID 0000.0001) %MON trcstat_ptracer35_sd         =   1.2034564349950E-12
(PID.TID 0000.0001) %MON trcstat_ptracer35_del2       =   0.0000000000000E+00
(PID.TID 0000.0001) %MON trcstat_ptracer36_max        =   5.0224801862516E-10
(PID.TID 0000.0001) %MON trcstat_ptracer36_min        =   4.9582595724766E-10
(PID.TID 0000.0001) %MON trcstat_ptracer36_mean       =   5.0038521587128E-10
(PID.TID 0000.0001) %MON trcstat_ptracer36_sd         =   5.7769767527080E-13
(PID.TID 0000.0001) %MON trcstat_ptracer36_del2       =   0.0000000000000E+00
(PID.TID 0000.0001) %MON trcstat_ptracer37_max        =   4.9824776143946E-10
(PID.TID 0000.0001) %MON trcstat_ptracer37_min        =   4.9746095893021E-10
(PID.TID 0000.0001) %MON trcstat_ptracer37_mean       =   4.9813855475583E-10
(PID.TID 0000.0001) %MON trcstat_ptracer37_sd         =   2.1536994542815E-13
(PID.TID 0000.0001) %MON trcstat_ptracer37_del2       =   0.0000000000000E+00
(PID.TID 0000.0001) %MON trcstat_ptracer38_max        =   5.9200229311622E-14
(PID.TID 0000.0001) %MON trcstat_ptracer38_min        =   2.9701740726727E-14
(PID.TID 0000.0001) %MON trcstat_ptracer38_mean       =   4.6506623544865E-14
(PID.TID 0000.0001) %MON trcstat_ptracer38_sd         =   1.0813790384237E-14
(PID.TID 0000.0001) %MON trcstat_ptracer38_del2       =   0.0000000000000E+00
(PID.TID 0000.0001) %MON trcstat_ptracer39_max        =   5.5062609935198E-14
(PID.TID 0000.0001) %MON trcstat_ptracer39_min        =   2.9701780158642E-14
(PID.TID 0000.0001) %MON trcstat_ptracer39_mean       =   4.3949513366435E-14
(PID.TID 0000.0001) %MON trcstat_ptracer39_sd         =   9.1906594542586E-15
(PID.TID 0000.0001) %MON trcstat_ptracer39_del2       =   0.0000000000000E+00
(PID.TID 0000.0001) %MON trcstat_ptracer40_max        =   5.1299592218748E-14
(PID.TID 0000.0001) %MON trcstat_ptracer40_min        =   2.9701714718190E-14
(PID.TID 0000.0001) %MON trcstat_ptracer40_mean       =   4.1689379243485E-14
(PID.TID 0000.0001) %MON trcstat_ptracer40_sd         =   7.7506786669764E-15
(PID.TID 0000.0001) %MON trcstat_ptracer40_del2       =   0.0000000000000E+00
(PID.TID 0000.0001) %MON trcstat_ptracer41_max        =   4.7939907520860E-14
(PID.TID 0000.0001) %MON trcstat_ptracer41_min        =   2.9701671528405E-14
(PID.TID 0000.0001) %MON trcstat_ptracer41_mean       =   3.9717147749791E-14
(PID.TID 0000.0001) %MON trcstat_ptracer41_sd         =   6.4895517088735E-15
(PID.TID 0000.0001) %MON trcstat_ptracer41_del2       =   0.0000000000000E+00
(PID.TID 0000.0001) %MON trcstat_ptracer42_max        =   4.4962996306806E-14
(PID.TID 0000.0001) %MON trcstat_ptracer42_min        =   2.9701644125985E-14
(PID.TID 0000.0001) %MON trcstat_ptracer42_mean       =   3.8010197279755E-14
(PID.TID 0000.0001) %MON trcstat_ptracer42_sd         =   5.3942034987517E-15
(PID.TID 0000.0001) %MON trcstat_ptracer42_del2       =   0.0000000000000E+00
(PID.TID 0000.0001) %MON trcstat_ptracer43_max        =   4.2364982917248E-14
(PID.TID 0000.0001) %MON trcstat_ptracer43_min        =   2.9701627792902E-14
(PID.TID 0000.0001) %MON trcstat_ptracer43_mean       =   3.6546104825143E-14
(PID.TID 0000.0001) %MON trcstat_ptracer43_sd         =   4.4517385470404E-15
(PID.TID 0000.0001) %MON trcstat_ptracer43_del2       =   0.0000000000000E+00
(PID.TID 0000.0001) %MON trcstat_ptracer44_max        =   4.0122331928181E-14
(PID.TID 0000.0001) %MON trcstat_ptracer44_min        =   2.9701619057599E-14
(PID.TID 0000.0001) %MON trcstat_ptracer44_mean       =   3.5301514390381E-14
(PID.TID 0000.0001) %MON trcstat_ptracer44_sd         =   3.6483282015641E-15
(PID.TID 0000.0001) %MON trcstat_ptracer44_del2       =   0.0000000000000E+00
(PID.TID 0000.0001) %MON trcstat_ptracer45_max        =   3.8208640625478E-14
(PID.TID 0000.0001) %MON trcstat_ptracer45_min        =   2.9701615327822E-14
(PID.TID 0000.0001) %MON trcstat_ptracer45_mean       =   3.4252022118533E-14
(PID.TID 0000.0001) %MON trcstat_ptracer45_sd         =   2.9692134735466E-15
(PID.TID 0000.0001) %MON trcstat_ptracer45_del2       =   0.0000000000000E+00
(PID.TID 0000.0001) %MON trcstat_ptracer46_max        =   3.6590813307398E-14
(PID.TID 0000.0001) %MON trcstat_ptracer46_min        =   2.9701614662327E-14
(PID.TID 0000.0001) %MON trcstat_ptracer46_mean       =   3.3373571948183E-14
(PID.TID 0000.0001) %MON trcstat_ptracer46_sd         =   2.3995296633397E-15
(PID.TID 0000.0001) %MON trcstat_ptracer46_del2       =   0.0000000000000E+00
(PID.TID 0000.0001) %MON trcstat_ptracer47_max        =   3.4113333531078E-14
(PID.TID 0000.0001) %MON trcstat_ptracer47_min        =   2.9701617062841E-14
(PID.TID 0000.0001) %MON trcstat_ptracer47_mean       =   3.2040953454822E-14
(PID.TID 0000.0001) %MON trcstat_ptracer47_sd         =   1.5326406117743E-15
(PID.TID 0000.0001) %MON trcstat_ptracer47_del2       =   0.0000000000000E+00
(PID.TID 0000.0001) %MON trcstat_ptracer48_max        =   3.3190275561337E-14
(PID.TID 0000.0001) %MON trcstat_ptracer48_min        =   2.9701618239626E-14
(PID.TID 0000.0001) %MON trcstat_ptracer48_mean       =   3.1547291553819E-14
(PID.TID 0000.0001) %MON trcstat_ptracer48_sd         =   1.2103242512901E-15
(PID.TID 0000.0001) %MON trcstat_ptracer48_del2       =   0.0000000000000E+00
(PID.TID 0000.0001) %MON trcstat_ptracer49_max        =   3.2439514073272E-14
(PID.TID 0000.0001) %MON trcstat_ptracer49_min        =   2.9701618575965E-14
(PID.TID 0000.0001) %MON trcstat_ptracer49_mean       =   3.1145912381931E-14
(PID.TID 0000.0001) %MON trcstat_ptracer49_sd         =   9.4747229378902E-16
(PID.TID 0000.0001) %MON trcstat_ptracer49_del2       =   0.0000000000000E+00
(PID.TID 0000.0001) %MON trcstat_ptracer50_max        =   3.1832309285995E-14
(PID.TID 0000.0001) %MON trcstat_ptracer50_min        =   2.9701617724334E-14
(PID.TID 0000.0001) %MON trcstat_ptracer50_mean       =   3.0822223578706E-14
(PID.TID 0000.0001) %MON trcstat_ptracer50_sd         =   7.3468194732720E-16
(PID.TID 0000.0001) %MON trcstat_ptracer50_del2       =   0.0000000000000E+00
(PID.TID 0000.0001) %MON trcstat_ptracer51_max        =   3.1344921436301E-14
(PID.TID 0000.0001) %MON trcstat_ptracer51_min        =   2.9701615527613E-14
(PID.TID 0000.0001) %MON trcstat_ptracer51_mean       =   3.0563466404232E-14
(PID.TID 0000.0001) %MON trcstat_ptracer51_sd         =   5.6372239164900E-16
(PID.TID 0000.0001) %MON trcstat_ptracer51_del2       =   0.0000000000000E+00
(PID.TID 0000.0001) %MON trcstat_ptracer52_max        =   3.0957413260825E-14
(PID.TID 0000.0001) %MON trcstat_ptracer52_min        =   2.9701612002488E-14
(PID.TID 0000.0001) %MON trcstat_ptracer52_mean       =   3.0358540917340E-14
(PID.TID 0000.0001) %MON trcstat_ptracer52_sd         =   4.2746718342558E-16
(PID.TID 0000.0001) %MON trcstat_ptracer52_del2       =   0.0000000000000E+00
(PID.TID 0000.0001) %MON trcstat_ptracer53_max        =   2.9894866007247E-14
(PID.TID 0000.0001) %MON trcstat_ptracer53_min        =   2.9847657856185E-14
(PID.TID 0000.0001) %MON trcstat_ptracer53_mean       =   2.9888313606159E-14
(PID.TID 0000.0001) %MON trcstat_ptracer53_sd         =   1.2922196864404E-17
(PID.TID 0000.0001) %MON trcstat_ptracer53_del2       =   0.0000000000000E+00
(PID.TID 0000.0001) %MON trcstat_ptracer54_max        =   2.4265329060087E-09
(PID.TID 0000.0001) %MON trcstat_ptracer54_min        =   9.9004567825651E-10
(PID.TID 0000.0001) %MON trcstat_ptracer54_mean       =   1.0378697167002E-09
(PID.TID 0000.0001) %MON trcstat_ptracer54_sd         =   2.5362821119033E-10
(PID.TID 0000.0001) %MON trcstat_ptracer54_del2       =   0.0000000000000E+00
(PID.TID 0000.0001) %MON trcstat_ptracer55_max        =   2.4406276697376E-09
(PID.TID 0000.0001) %MON trcstat_ptracer55_min        =   9.9004567825651E-10
(PID.TID 0000.0001) %MON trcstat_ptracer55_mean       =   1.0371269721724E-09
(PID.TID 0000.0001) %MON trcstat_ptracer55_sd         =   2.4980363548892E-10
(PID.TID 0000.0001) %MON trcstat_ptracer55_del2       =   0.0000000000000E+00
(PID.TID 0000.0001) %MON trcstat_ptracer56_max        =   2.2065196681767E-09
(PID.TID 0000.0001) %MON trcstat_ptracer56_min        =   9.9004567825651E-10
(PID.TID 0000.0001) %MON trcstat_ptracer56_mean       =   1.0305791345848E-09
(PID.TID 0000.0001) %MON trcstat_ptracer56_sd         =   2.1494824123875E-10
(PID.TID 0000.0001) %MON trcstat_ptracer56_del2       =   0.0000000000000E+00
(PID.TID 0000.0001) %MON trcstat_ptracer57_max        =   2.1052878985003E-09
(PID.TID 0000.0001) %MON trcstat_ptracer57_min        =   9.9004567825651E-10
(PID.TID 0000.0001) %MON trcstat_ptracer57_mean       =   1.0268710821825E-09
(PID.TID 0000.0001) %MON trcstat_ptracer57_sd         =   1.9529998539788E-10
(PID.TID 0000.0001) %MON trcstat_ptracer57_del2       =   0.0000000000000E+00
(PID.TID 0000.0001) %MON trcstat_ptracer58_max        =   1.8826626677698E-09
(PID.TID 0000.0001) %MON trcstat_ptracer58_min        =   9.9004567825651E-10
(PID.TID 0000.0001) %MON trcstat_ptracer58_mean       =   1.0198060271568E-09
(PID.TID 0000.0001) %MON trcstat_ptracer58_sd         =   1.5779671853698E-10
(PID.TID 0000.0001) %MON trcstat_ptracer58_del2       =   0.0000000000000E+00
(PID.TID 0000.0001) %MON trcstat_ptracer59_max        =   1.6939300184773E-09
(PID.TID 0000.0001) %MON trcstat_ptracer59_min        =   9.9004567825651E-10
(PID.TID 0000.0001) %MON trcstat_ptracer59_mean       =   1.0138317816953E-09
(PID.TID 0000.0001) %MON trcstat_ptracer59_sd         =   1.2608366406491E-10
(PID.TID 0000.0001) %MON trcstat_ptracer59_del2       =   0.0000000000000E+00
(PID.TID 0000.0001) %MON trcstat_ptracer60_max        =   1.5363083509307E-09
(PID.TID 0000.0001) %MON trcstat_ptracer60_min        =   9.9004567825651E-10
(PID.TID 0000.0001) %MON trcstat_ptracer60_mean       =   1.0085332201971E-09
(PID.TID 0000.0001) %MON trcstat_ptracer60_sd         =   9.7974112789872E-11
(PID.TID 0000.0001) %MON trcstat_ptracer60_del2       =   0.0000000000000E+00
(PID.TID 0000.0001) %MON trcstat_ptracer61_max        =   1.4081804770697E-09
(PID.TID 0000.0001) %MON trcstat_ptracer61_min        =   9.9004567825651E-10
(PID.TID 0000.0001) %MON trcstat_ptracer61_mean       =   1.0042129657746E-09
(PID.TID 0000.0001) %MON trcstat_ptracer61_sd         =   7.5049373687851E-11
(PID.TID 0000.0001) %MON trcstat_ptracer61_del2       =   0.0000000000000E+00
(PID.TID 0000.0001) %MON trcstat_ptracer62_max        =   1.3055727710107E-09
(PID.TID 0000.0001) %MON trcstat_ptracer62_min        =   9.9004567825651E-10
(PID.TID 0000.0001) %MON trcstat_ptracer62_mean       =   1.0007464784963E-09
(PID.TID 0000.0001) %MON trcstat_ptracer62_sd         =   5.6647681924153E-11
(PID.TID 0000.0001) %MON trcstat_ptracer62_del2       =   0.0000000000000E+00
(PID.TID 0000.0001) %MON trcstat_ptracer63_max        =   1.1607839918473E-09
(PID.TID 0000.0001) %MON trcstat_ptracer63_min        =   9.9004567825651E-10
(PID.TID 0000.0001) %MON trcstat_ptracer63_mean       =   9.9588532964976E-10
(PID.TID 0000.0001) %MON trcstat_ptracer63_sd         =   3.0809908480302E-11
(PID.TID 0000.0001) %MON trcstat_ptracer63_del2       =   0.0000000000000E+00
(PID.TID 0000.0001) %MON trcstat_ptracer64_max        =   1.1111745218796E-09
(PID.TID 0000.0001) %MON trcstat_ptracer64_min        =   9.9004567825651E-10
(PID.TID 0000.0001) %MON trcstat_ptracer64_mean       =   9.9419087617638E-10
(PID.TID 0000.0001) %MON trcstat_ptracer64_sd         =   2.1781781191857E-11
(PID.TID 0000.0001) %MON trcstat_ptracer64_del2       =   0.0000000000000E+00
(PID.TID 0000.0001) %MON trcstat_ptracer65_max        =   1.0728915919156E-09
(PID.TID 0000.0001) %MON trcstat_ptracer65_min        =   9.9004567825651E-10
(PID.TID 0000.0001) %MON trcstat_ptracer65_mean       =   9.9288287394243E-10
(PID.TID 0000.0001) %MON trcstat_ptracer65_sd         =   1.4790346586057E-11
(PID.TID 0000.0001) %MON trcstat_ptracer65_del2       =   0.0000000000000E+00
(PID.TID 0000.0001) %MON trcstat_ptracer66_max        =   1.0436116247933E-09
(PID.TID 0000.0001) %MON trcstat_ptracer66_min        =   9.9004567825651E-10
(PID.TID 0000.0001) %MON trcstat_ptracer66_mean       =   9.9188226430578E-10
(PID.TID 0000.0001) %MON trcstat_ptracer66_sd         =   9.4142634666378E-12
(PID.TID 0000.0001) %MON trcstat_ptracer66_del2       =   0.0000000000000E+00
(PID.TID 0000.0001) %MON trcstat_ptracer67_max        =   1.0214618322678E-09
(PID.TID 0000.0001) %MON trcstat_ptracer67_min        =   9.9004567825651E-10
(PID.TID 0000.0001) %MON trcstat_ptracer67_mean       =   9.9112526717857E-10
(PID.TID 0000.0001) %MON trcstat_ptracer67_sd         =   5.3177344584233E-12
(PID.TID 0000.0001) %MON trcstat_ptracer67_del2       =   0.0000000000000E+00
(PID.TID 0000.0001) %MON trcstat_ptracer68_max        =   1.0049461113324E-09
(PID.TID 0000.0001) %MON trcstat_ptracer68_min        =   9.9004567825651E-10
(PID.TID 0000.0001) %MON trcstat_ptracer68_mean       =   9.9056090154533E-10
(PID.TID 0000.0001) %MON trcstat_ptracer68_sd         =   2.2702207519342E-12
(PID.TID 0000.0001) %MON trcstat_ptracer68_del2       =   0.0000000000000E+00
(PID.TID 0000.0001) %MON trcstat_ptracer69_max        =   5.8160983681066E-10
(PID.TID 0000.0001) %MON trcstat_ptracer69_min        =   5.7079704164259E-10
(PID.TID 0000.0001) %MON trcstat_ptracer69_mean       =   5.7905172779233E-10
(PID.TID 0000.0001) %MON trcstat_ptracer69_sd         =   2.9099357043404E-12
(PID.TID 0000.0001) %MON trcstat_ptracer69_del2       =   0.0000000000000E+00
(PID.TID 0000.0001) %MON trcstat_ptracer70_max        =   3.9915529735406E-10
(PID.TID 0000.0001) %MON trcstat_ptracer70_min        =   3.4917467766173E-10
(PID.TID 0000.0001) %MON trcstat_ptracer70_mean       =   3.9680806509057E-10
(PID.TID 0000.0001) %MON trcstat_ptracer70_sd         =   2.8529259543236E-12
(PID.TID 0000.0001) %MON trcstat_ptracer70_del2       =   0.0000000000000E+00
(PID.TID 0000.0001) %MON trcstat_ptracer71_max        =   2.7128849289076E-01
(PID.TID 0000.0001) %MON trcstat_ptracer71_min        =   5.5285143517232E-11
(PID.TID 0000.0001) %MON trcstat_ptracer71_mean       =   3.2909409070964E-02
(PID.TID 0000.0001) %MON trcstat_ptracer71_sd         =   8.3273876171816E-02
(PID.TID 0000.0001) %MON trcstat_ptracer71_del2       =   0.0000000000000E+00
(PID.TID 0000.0001) %MON trcstat_ptracer72_max        =   3.0099844322153E-02
(PID.TID 0000.0001) %MON trcstat_ptracer72_min        =   7.1300834494694E-07
(PID.TID 0000.0001) %MON trcstat_ptracer72_mean       =   1.4828849791482E-02
(PID.TID 0000.0001) %MON trcstat_ptracer72_sd         =   1.1009002873614E-02
(PID.TID 0000.0001) %MON trcstat_ptracer72_del2       =   0.0000000000000E+00
(PID.TID 0000.0001) %MON trcstat_ptracer73_max        =   1.6955531190728E-05
(PID.TID 0000.0001) %MON trcstat_ptracer73_min        =   2.7358224435949E-15
(PID.TID 0000.0001) %MON trcstat_ptracer73_mean       =   2.0568380652231E-06
(PID.TID 0000.0001) %MON trcstat_ptracer73_sd         =   5.2046172563193E-06
(PID.TID 0000.0001) %MON trcstat_ptracer73_del2       =   0.0000000000000E+00
(PID.TID 0000.0001) %MON trcstat_ptracer74_max        =   1.8812403424777E-06
(PID.TID 0000.0001) %MON trcstat_ptracer74_min        =   4.4562705571051E-11
(PID.TID 0000.0001) %MON trcstat_ptracer74_mean       =   9.2680311966599E-07
(PID.TID 0000.0001) %MON trcstat_ptracer74_sd         =   6.8806270480214E-07
(PID.TID 0000.0001) %MON trcstat_ptracer74_del2       =   0.0000000000000E+00
(PID.TID 0000.0001) // =======================================================
(PID.TID 0000.0001) // End MONITOR ptracers field statistics
(PID.TID 0000.0001) // =======================================================
(PID.TID 0000.0001) %CHECKPOINT         4 ckptA
(PID.TID 0000.0001)   Seconds in section "ALL                    [THE_MODEL_MAIN]":
(PID.TID 0000.0001)           User time:   1.1000000000000001
(PID.TID 0000.0001)         System time:   8.0000000000000002E-002
(PID.TID 0000.0001)     Wall clock time:   22.540103197097778
(PID.TID 0000.0001)          No. starts:           1
(PID.TID 0000.0001)           No. stops:           1
(PID.TID 0000.0001)   Seconds in section "INITIALISE_FIXED       [THE_MODEL_MAIN]":
(PID.TID 0000.0001)           User time:  0.72999999999999998
(PID.TID 0000.0001)         System time:   5.0000000000000003E-002
(PID.TID 0000.0001)     Wall clock time:   3.0087521076202393
(PID.TID 0000.0001)          No. starts:           1
(PID.TID 0000.0001)           No. stops:           1
(PID.TID 0000.0001)   Seconds in section "THE_MAIN_LOOP          [THE_MODEL_MAIN]":
(PID.TID 0000.0001)           User time:  0.37000000000000011
(PID.TID 0000.0001)         System time:   2.9999999999999999E-002
(PID.TID 0000.0001)     Wall clock time:   19.528771877288818
(PID.TID 0000.0001)          No. starts:           1
(PID.TID 0000.0001)           No. stops:           1
(PID.TID 0000.0001)   Seconds in section "INITIALISE_VARIA    [THE_MAIN_LOOP]":
(PID.TID 0000.0001)           User time:   8.0000000000000071E-002
(PID.TID 0000.0001)         System time:   9.9999999999999950E-003
(PID.TID 0000.0001)     Wall clock time:   6.6262080669403076
(PID.TID 0000.0001)          No. starts:           1
(PID.TID 0000.0001)           No. stops:           1
(PID.TID 0000.0001)   Seconds in section "MAIN LOOP           [THE_MAIN_LOOP]":
(PID.TID 0000.0001)           User time:  0.29000000000000004
(PID.TID 0000.0001)         System time:   2.0000000000000004E-002
(PID.TID 0000.0001)     Wall clock time:   12.902531862258911
(PID.TID 0000.0001)          No. starts:           1
(PID.TID 0000.0001)           No. stops:           1
(PID.TID 0000.0001)   Seconds in section "MAIN_DO_LOOP        [THE_MAIN_LOOP]":
(PID.TID 0000.0001)           User time:  0.29000000000000004
(PID.TID 0000.0001)         System time:   2.0000000000000004E-002
(PID.TID 0000.0001)     Wall clock time:   12.902511835098267
(PID.TID 0000.0001)          No. starts:           1
(PID.TID 0000.0001)           No. stops:           1
(PID.TID 0000.0001)   Seconds in section "FORWARD_STEP        [MAIN_DO_LOOP]":
(PID.TID 0000.0001)           User time:  0.29000000000000004
(PID.TID 0000.0001)         System time:   2.0000000000000004E-002
(PID.TID 0000.0001)     Wall clock time:   12.902459859848022
(PID.TID 0000.0001)          No. starts:           4
(PID.TID 0000.0001)           No. stops:           4
(PID.TID 0000.0001)   Seconds in section "LOAD_FIELDS_DRIVER  [FORWARD_STEP]":
(PID.TID 0000.0001)           User time:   0.0000000000000000
(PID.TID 0000.0001)         System time:   0.0000000000000000
(PID.TID 0000.0001)     Wall clock time:   4.5308828353881836E-002
(PID.TID 0000.0001)          No. starts:           4
(PID.TID 0000.0001)           No. stops:           4
(PID.TID 0000.0001)   Seconds in section "EXTERNAL_FLDS_LOAD [LOAD_FLDS_DRIVER]":
(PID.TID 0000.0001)           User time:   0.0000000000000000
(PID.TID 0000.0001)         System time:   0.0000000000000000
(PID.TID 0000.0001)     Wall clock time:   3.3783912658691406E-004
(PID.TID 0000.0001)          No. starts:           4
(PID.TID 0000.0001)           No. stops:           4
(PID.TID 0000.0001)   Seconds in section "DO_ATMOSPHERIC_PHYS [FORWARD_STEP]":
(PID.TID 0000.0001)           User time:   0.0000000000000000
(PID.TID 0000.0001)         System time:   0.0000000000000000
(PID.TID 0000.0001)     Wall clock time:   4.3153762817382813E-005
(PID.TID 0000.0001)          No. starts:           4
(PID.TID 0000.0001)           No. stops:           4
(PID.TID 0000.0001)   Seconds in section "DO_OCEANIC_PHYS     [FORWARD_STEP]":
(PID.TID 0000.0001)           User time:   2.0000000000000018E-002
(PID.TID 0000.0001)         System time:   0.0000000000000000
(PID.TID 0000.0001)     Wall clock time:   7.7152252197265625E-003
(PID.TID 0000.0001)          No. starts:           4
(PID.TID 0000.0001)           No. stops:           4
(PID.TID 0000.0001)   Seconds in section "KPP_CALC [DO_OCEANIC_PHYS]":
(PID.TID 0000.0001)           User time:   1.0000000000000009E-002
(PID.TID 0000.0001)         System time:   0.0000000000000000
(PID.TID 0000.0001)     Wall clock time:   6.7510604858398438E-003
(PID.TID 0000.0001)          No. starts:           4
(PID.TID 0000.0001)           No. stops:           4
(PID.TID 0000.0001)   Seconds in section "GCHEM_CALC_TENDENCY [FORWARD_STEP]":
(PID.TID 0000.0001)           User time:   0.0000000000000000
(PID.TID 0000.0001)         System time:   0.0000000000000000
(PID.TID 0000.0001)     Wall clock time:   3.8862228393554688E-005
(PID.TID 0000.0001)          No. starts:           4
(PID.TID 0000.0001)           No. stops:           4
(PID.TID 0000.0001)   Seconds in section "THERMODYNAMICS      [FORWARD_STEP]":
(PID.TID 0000.0001)           User time:  0.15999999999999992
(PID.TID 0000.0001)         System time:   0.0000000000000000
(PID.TID 0000.0001)     Wall clock time:  0.16994667053222656
(PID.TID 0000.0001)          No. starts:           4
(PID.TID 0000.0001)           No. stops:           4
(PID.TID 0000.0001)   Seconds in section "TRC_CORRECTION_STEP [FORWARD_STEP]":
(PID.TID 0000.0001)           User time:   0.0000000000000000
(PID.TID 0000.0001)         System time:   0.0000000000000000
(PID.TID 0000.0001)     Wall clock time:   2.6626586914062500E-003
(PID.TID 0000.0001)          No. starts:           4
(PID.TID 0000.0001)           No. stops:           4
(PID.TID 0000.0001)   Seconds in section "GCHEM_FORCING_SEP  [FORWARD_STEP]":
(PID.TID 0000.0001)           User time:   3.0000000000000027E-002
(PID.TID 0000.0001)         System time:   0.0000000000000000
(PID.TID 0000.0001)     Wall clock time:   2.4937868118286133E-002
(PID.TID 0000.0001)          No. starts:           4
(PID.TID 0000.0001)           No. stops:           4
(PID.TID 0000.0001)   Seconds in section "BLOCKING_EXCHANGES  [FORWARD_STEP]":
(PID.TID 0000.0001)           User time:   1.0000000000000009E-002
(PID.TID 0000.0001)         System time:   0.0000000000000000
(PID.TID 0000.0001)     Wall clock time:   9.7429752349853516E-003
(PID.TID 0000.0001)          No. starts:           4
(PID.TID 0000.0001)           No. stops:           4
(PID.TID 0000.0001)   Seconds in section "DO_STATEVARS_TAVE   [FORWARD_STEP]":
(PID.TID 0000.0001)           User time:   0.0000000000000000
(PID.TID 0000.0001)         System time:   0.0000000000000000
(PID.TID 0000.0001)     Wall clock time:   7.8511238098144531E-004
(PID.TID 0000.0001)          No. starts:           4
(PID.TID 0000.0001)           No. stops:           4
(PID.TID 0000.0001)   Seconds in section "MONITOR             [FORWARD_STEP]":
(PID.TID 0000.0001)           User time:   0.0000000000000000
(PID.TID 0000.0001)         System time:   0.0000000000000000
(PID.TID 0000.0001)     Wall clock time:   3.9730072021484375E-003
(PID.TID 0000.0001)          No. starts:           4
(PID.TID 0000.0001)           No. stops:           4
(PID.TID 0000.0001)   Seconds in section "DO_THE_MODEL_IO     [FORWARD_STEP]":
(PID.TID 0000.0001)           User time:   7.0000000000000062E-002
(PID.TID 0000.0001)         System time:   1.0000000000000009E-002
(PID.TID 0000.0001)     Wall clock time:   12.632709264755249
(PID.TID 0000.0001)          No. starts:           4
(PID.TID 0000.0001)           No. stops:           4
(PID.TID 0000.0001)   Seconds in section "PTRACERS_RESET      [FORWARD_STEP]":
(PID.TID 0000.0001)           User time:   0.0000000000000000
(PID.TID 0000.0001)         System time:   0.0000000000000000
(PID.TID 0000.0001)     Wall clock time:   4.3869018554687500E-005
(PID.TID 0000.0001)          No. starts:           4
(PID.TID 0000.0001)           No. stops:           4
(PID.TID 0000.0001)   Seconds in section "DO_WRITE_PICKUP     [FORWARD_STEP]":
(PID.TID 0000.0001)           User time:   0.0000000000000000
(PID.TID 0000.0001)         System time:   9.9999999999999950E-003
(PID.TID 0000.0001)     Wall clock time:   3.9708614349365234E-003
(PID.TID 0000.0001)          No. starts:           4
(PID.TID 0000.0001)           No. stops:           4
(PID.TID 0000.0001) // ======================================================
(PID.TID 0000.0001) // Tile <-> Tile communication statistics
(PID.TID 0000.0001) // ======================================================
(PID.TID 0000.0001) // o Tile number: 000001
(PID.TID 0000.0001) //         No. X exchanges =              0
(PID.TID 0000.0001) //            Max. X spins =              0
(PID.TID 0000.0001) //            Min. X spins =     1000000000
(PID.TID 0000.0001) //          Total. X spins =              0
(PID.TID 0000.0001) //            Avg. X spins =       0.00E+00
(PID.TID 0000.0001) //         No. Y exchanges =              0
(PID.TID 0000.0001) //            Max. Y spins =              0
(PID.TID 0000.0001) //            Min. Y spins =     1000000000
(PID.TID 0000.0001) //          Total. Y spins =              0
(PID.TID 0000.0001) //            Avg. Y spins =       0.00E+00
(PID.TID 0000.0001) // o Thread number: 000001
(PID.TID 0000.0001) //            No. barriers =          16666
(PID.TID 0000.0001) //      Max. barrier spins =              1
(PID.TID 0000.0001) //      Min. barrier spins =              1
(PID.TID 0000.0001) //     Total barrier spins =          16666
(PID.TID 0000.0001) //      Avg. barrier spins =       1.00E+00
PROGRAM MAIN: Execution ended Normally
