(PID.TID 0000.0001) 
(PID.TID 0000.0001) // ======================================================
(PID.TID 0000.0001) //                      MITgcm UV
(PID.TID 0000.0001) //                      =========
(PID.TID 0000.0001) // ======================================================
(PID.TID 0000.0001) // execution environment starting up...
(PID.TID 0000.0001) 
(PID.TID 0000.0001) // MITgcmUV version:  checkpoint63o
(PID.TID 0000.0001) // Build user:        benw
(PID.TID 0000.0001) // Build host:        tide
(PID.TID 0000.0001) // Build date:        Mon Jul  2 06:07:24 EDT 2012
(PID.TID 0000.0001) 
(PID.TID 0000.0001) // =======================================================
(PID.TID 0000.0001) // Execution Environment parameter file "eedata"
(PID.TID 0000.0001) // =======================================================
(PID.TID 0000.0001) ># Example "eedata" file
(PID.TID 0000.0001) ># Lines beginning "#" are comments
(PID.TID 0000.0001) ># nTx - No. threads per process in X
(PID.TID 0000.0001) ># nTy - No. threads per process in Y
(PID.TID 0000.0001) > &EEPARMS
(PID.TID 0000.0001) > nTx=1,nTy=1
(PID.TID 0000.0001) > /
(PID.TID 0000.0001) ># Note: Some systems use & as the
(PID.TID 0000.0001) ># namelist terminator. Other systems
(PID.TID 0000.0001) ># use a / character (as shown here).
(PID.TID 0000.0001) 
(PID.TID 0000.0001) // =======================================================
(PID.TID 0000.0001) // Computational Grid Specification ( see files "SIZE.h" )
(PID.TID 0000.0001) //                                  ( and "eedata"       )
(PID.TID 0000.0001) // =======================================================
(PID.TID 0000.0001)      nPx =    1 ; /* No. processes in X */
(PID.TID 0000.0001)      nPy =    1 ; /* No. processes in Y */
(PID.TID 0000.0001)      nSx =    1 ; /* No. tiles in X per process */
(PID.TID 0000.0001)      nSy =    1 ; /* No. tiles in Y per process */
(PID.TID 0000.0001)      sNx =    1 ; /* Tile size in X */
(PID.TID 0000.0001)      sNy =    1 ; /* Tile size in Y */
(PID.TID 0000.0001)      OLx =    2 ; /* Tile overlap distance in X */
(PID.TID 0000.0001)      OLy =    2 ; /* Tile overlap distance in Y */
(PID.TID 0000.0001)      nTx =    1 ; /* No. threads in X per process */
(PID.TID 0000.0001)      nTy =    1 ; /* No. threads in Y per process */
(PID.TID 0000.0001)       Nr =   35 ; /* No. levels in the vertical   */
(PID.TID 0000.0001)       Nx =    1 ; /* Total domain size in X ( = nPx*nSx*sNx ) */
(PID.TID 0000.0001)       Ny =    1 ; /* Total domain size in Y ( = nPy*nSy*sNy ) */
(PID.TID 0000.0001)   nTiles =    1 ; /* Total no. tiles per process ( = nSx*nSy ) */
(PID.TID 0000.0001)   nProcs =    1 ; /* Total no. processes ( = nPx*nPy ) */
(PID.TID 0000.0001) nThreads =    1 ; /* Total no. threads per process ( = nTx*nTy ) */
(PID.TID 0000.0001) usingMPI =    F ; /* Flag used to control whether MPI is in use */
(PID.TID 0000.0001)                   /*  note: To execute a program with MPI calls */
(PID.TID 0000.0001)                   /*  it must be launched appropriately e.g     */
(PID.TID 0000.0001)                   /*  "mpirun -np 64 ......"                    */
(PID.TID 0000.0001) useCoupler=    F ;/* Flag used to control communications with   */
(PID.TID 0000.0001)                   /*  other model components, through a coupler */
(PID.TID 0000.0001) debugMode =    F ; /* print debug msg. (sequence of S/R calls)  */
(PID.TID 0000.0001) printMapIncludesZeros=    F ; /* print zeros in Std.Output maps */
(PID.TID 0000.0001) maxLengthPrt1D=   65 /* maxLength of 1D array printed to StdOut */
(PID.TID 0000.0001) 
(PID.TID 0000.0001) // ======================================================
(PID.TID 0000.0001) // Mapping of tiles to threads
(PID.TID 0000.0001) // ======================================================
(PID.TID 0000.0001) // -o- Thread   1, tiles (   1:   1,   1:   1)
(PID.TID 0000.0001) 
(PID.TID 0000.0001) // ======================================================
(PID.TID 0000.0001) // Tile <-> Tile connectvity table
(PID.TID 0000.0001) // ======================================================
(PID.TID 0000.0001) // Tile number: 000001 (process no. = 000001)
(PID.TID 0000.0001) //        WEST: Tile = 000001, Process = 000001, Comm = put
(PID.TID 0000.0001) //                bi = 000001, bj = 000001
(PID.TID 0000.0001) //        EAST: Tile = 000001, Process = 000001, Comm = put
(PID.TID 0000.0001) //                bi = 000001, bj = 000001
(PID.TID 0000.0001) //       SOUTH: Tile = 000001, Process = 000001, Comm = put
(PID.TID 0000.0001) //                bi = 000001, bj = 000001
(PID.TID 0000.0001) //       NORTH: Tile = 000001, Process = 000001, Comm = put
(PID.TID 0000.0001) //                bi = 000001, bj = 000001
(PID.TID 0000.0001) 
(PID.TID 0000.0001)  INI_PARMS: opening model parameter file "data"
(PID.TID 0000.0001)  OPEN_COPY_DATA_FILE: opening file data
(PID.TID 0000.0001) // =======================================================
(PID.TID 0000.0001) // Parameter file "data"
(PID.TID 0000.0001) // =======================================================
(PID.TID 0000.0001) >#
(PID.TID 0000.0001) ># ******************************
(PID.TID 0000.0001) ># Model parameters
(PID.TID 0000.0001) ># Continuous equation parameters
(PID.TID 0000.0001) ># ******************************
(PID.TID 0000.0001) >&PARM01
(PID.TID 0000.0001) >tRef= 26.5, 26.1, 26., 25.5, 25.4, 24.9, 24.5, 24.0, 23.7,
(PID.TID 0000.0001) >      23.3, 23.1, 22.8, 22.5, 22.1, 21.6, 20.6, 19.5, 18.4,
(PID.TID 0000.0001) >      17.3, 16.6, 15.5, 14.6, 13.8, 13.1, 11.6, 10.1, 7.7,
(PID.TID 0000.0001) >      5.3, 4.1, 3.7, 3.7, 3.4, 3.0, 2.8, 2.6,
(PID.TID 0000.0001) >sRef= 35*35.00,
(PID.TID 0000.0001) >no_slip_sides=.false.,
(PID.TID 0000.0001) >no_slip_bottom=.TRUE.,
(PID.TID 0000.0001) >viscAz=0.e0,
(PID.TID 0000.0001) >viscAh=0.e0,
(PID.TID 0000.0001) >diffKhT=1.E2,
(PID.TID 0000.0001) >diffKzT=1.E-4,
(PID.TID 0000.0001) >diffKhS=0.D0,
(PID.TID 0000.0001) >diffKzS=0.D0,
(PID.TID 0000.0001) >beta=1.E-11,
(PID.TID 0000.0001) >tAlpha=2.E-4,
(PID.TID 0000.0001) >sBeta =7.4E-4,
(PID.TID 0000.0001) >gravity=9.81,
(PID.TID 0000.0001) >gBaro=9.81,
(PID.TID 0000.0001) >rigidLid=.TRUE.,
(PID.TID 0000.0001) >implicitFreeSurface=.false.,
(PID.TID 0000.0001) >eosType='JMD95Z',
(PID.TID 0000.0001) >saltStepping=.FALSE.,
(PID.TID 0000.0001) >tempStepping=.TRUE.,
(PID.TID 0000.0001) >tempAdvection=.TRUE.,
(PID.TID 0000.0001) >momStepping=.FALSE.,
(PID.TID 0000.0001) >implicitDiffusion=.true.,
(PID.TID 0000.0001) >implicitViscosity=.true.,
(PID.TID 0000.0001) >allowFreezing=.false.,
(PID.TID 0000.0001) >useSingleCpuIO=.TRUE.,
(PID.TID 0000.0001) >useCDscheme=.FALSE.,
(PID.TID 0000.0001) >tempAdvScheme = 3,
(PID.TID 0000.0001) >saltAdvScheme = 3,
(PID.TID 0000.0001) >/
(PID.TID 0000.0001) >
(PID.TID 0000.0001) ># **************************
(PID.TID 0000.0001) ># Elliptic solver parameters
(PID.TID 0000.0001) ># **************************
(PID.TID 0000.0001) >&PARM02
(PID.TID 0000.0001) >cg2dMaxIters=300,
(PID.TID 0000.0001) >cg2dTargetResidual=1.E-7,
(PID.TID 0000.0001) >/
(PID.TID 0000.0001) >
(PID.TID 0000.0001) ># ************************
(PID.TID 0000.0001) ># Time stepping parameters
(PID.TID 0000.0001) ># ************************
(PID.TID 0000.0001) >&PARM03
(PID.TID 0000.0001) > nIter0=000000,
(PID.TID 0000.0001) ># nTimeSteps=86400,
(PID.TID 0000.0001) > nTimeSteps=4,
(PID.TID 0000.0001) > deltaTmom= 10800.,
(PID.TID 0000.0001) > deltaTtracer= 10800.,
(PID.TID 0000.0001) > deltaTClock = 10800.,
(PID.TID 0000.0001) >#benw set to 0. to switch off cAdj (?)
(PID.TID 0000.0001) > cAdjFreq=0.,
(PID.TID 0000.0001) > abEps=0.1,
(PID.TID 0000.0001) > pChkptFreq  = 31104000.0,
(PID.TID 0000.0001) > chkptFreq   = 31104000.0,
(PID.TID 0000.0001) > monitorFreq = 1.,
(PID.TID 0000.0001) > dumpFreq    = 31104000.0,
(PID.TID 0000.0001) > taveFreq    = 86400.,
(PID.TID 0000.0001) > tauThetaClimRelax=259200.,
(PID.TID 0000.0001) > tauSaltClimRelax=0.,
(PID.TID 0000.0001) > periodicExternalForcing=.TRUE.,
(PID.TID 0000.0001) > externForcingPeriod=2592000.,
(PID.TID 0000.0001) > externForcingCycle=31104000.,
(PID.TID 0000.0001) >/
(PID.TID 0000.0001) >
(PID.TID 0000.0001) ># *******************
(PID.TID 0000.0001) ># Gridding parameters
(PID.TID 0000.0001) ># *******************
(PID.TID 0000.0001) >&PARM04
(PID.TID 0000.0001) >usingCartesianGrid=.FALSE.,
(PID.TID 0000.0001) >usingSphericalPolarGrid=.TRUE.,
(PID.TID 0000.0001) >delX=1*1.E0,
(PID.TID 0000.0001) >delY=1*1.E0,
(PID.TID 0000.0001) >delZ=14*10, 5*15, 4*20, 2*50, 100, 2*150, 200, 300, 3*400, 2*500,
(PID.TID 0000.0001) >xgOrigin=335,
(PID.TID 0000.0001) >ygOrigin=-18.,
(PID.TID 0000.0001) >/
(PID.TID 0000.0001) >
(PID.TID 0000.0001) ># **********
(PID.TID 0000.0001) ># Data Files
(PID.TID 0000.0001) ># **********
(PID.TID 0000.0001) >&PARM05
(PID.TID 0000.0001) >bathyFile=       '../input/input/bathyneg.bin',
(PID.TID 0000.0001) >hydrogThetaFile= '../input/input/loc1_temp_janprof.bin',
(PID.TID 0000.0001) >hydrogSaltFile=  '../input/input/salt_uniform.bin',
(PID.TID 0000.0001) >zonalWindFile=   '../input/input/wind_u_mon.bin',
(PID.TID 0000.0001) >meridWindFile=   '../input/input/wind_v_mon.bin',
(PID.TID 0000.0001) >thetaClimFile=   '../input/input/loc1_temp_monsurf.bin',
(PID.TID 0000.0001) >saltClimFile=    '',
(PID.TID 0000.0001) >surfQFile=       '',
(PID.TID 0000.0001) >EmPmRFile=       '',
(PID.TID 0000.0001) >/
(PID.TID 0000.0001) 
(PID.TID 0000.0001)  INI_PARMS ; starts to read PARM01
(PID.TID 0000.0001)  INI_PARMS ; read PARM01 : OK
(PID.TID 0000.0001)  INI_PARMS ; starts to read PARM02
(PID.TID 0000.0001)  INI_PARMS ; read PARM02 : OK
(PID.TID 0000.0001)  INI_PARMS ; starts to read PARM03
(PID.TID 0000.0001)  INI_PARMS ; read PARM03 : OK
(PID.TID 0000.0001)  INI_PARMS ; starts to read PARM04
(PID.TID 0000.0001)  INI_PARMS ; read PARM04 : OK
(PID.TID 0000.0001)  INI_PARMS ; starts to read PARM05
(PID.TID 0000.0001)  INI_PARMS ; read PARM05 : OK
(PID.TID 0000.0001)  INI_PARMS: finished reading file "data"
(PID.TID 0000.0001)  PACKAGES_BOOT: opening data.pkg
(PID.TID 0000.0001)  OPEN_COPY_DATA_FILE: opening file data.pkg
(PID.TID 0000.0001) // =======================================================
(PID.TID 0000.0001) // Parameter file "data.pkg"
(PID.TID 0000.0001) // =======================================================
(PID.TID 0000.0001) ># Packages
(PID.TID 0000.0001) > &PACKAGES
(PID.TID 0000.0001) > usePTRACERS=.TRUE.
(PID.TID 0000.0001) > useGCHEM=.TRUE.,
(PID.TID 0000.0001) ># useDiagnostics=.TRUE.,
(PID.TID 0000.0001) > useKPP=.TRUE.,
(PID.TID 0000.0001) > useMNC=.TRUE.,
(PID.TID 0000.0001) > /
(PID.TID 0000.0001) 
(PID.TID 0000.0001)  PACKAGES_BOOT: finished reading data.pkg
(PID.TID 0000.0001)  MNC_READPARMS: opening file 'data.mnc'
(PID.TID 0000.0001)  OPEN_COPY_DATA_FILE: opening file data.mnc
(PID.TID 0000.0001) // =======================================================
(PID.TID 0000.0001) // Parameter file "data.mnc"
(PID.TID 0000.0001) // =======================================================
(PID.TID 0000.0001) ># Example "data.mnc" file
(PID.TID 0000.0001) ># Lines beginning "#" are comments
(PID.TID 0000.0001) > &MNC_01
(PID.TID 0000.0001) ># mnc_echo_gvtypes=.FALSE.,
(PID.TID 0000.0001) ># mnc_use_indir=.FALSE.,
(PID.TID 0000.0001) > mnc_use_outdir=.TRUE.,
(PID.TID 0000.0001) > mnc_outdir_str='dar1d_',
(PID.TID 0000.0001) > mnc_outdir_date=.TRUE.,
(PID.TID 0000.0001) > monitor_mnc=.FALSE.,
(PID.TID 0000.0001) > snapshot_mnc=.TRUE.,
(PID.TID 0000.0001) > timeave_mnc=.TRUE.,
(PID.TID 0000.0001) > pickup_read_mnc=.FALSE.,
(PID.TID 0000.0001) > pickup_write_mnc=.FALSE.,
(PID.TID 0000.0001) > /
(PID.TID 0000.0001) ># Note: Some systems use & as the
(PID.TID 0000.0001) ># namelist terminator. Other systems
(PID.TID 0000.0001) ># use a / character.
(PID.TID 0000.0001) 
(PID.TID 0000.0001)  MNC_READPARMS: finished reading data.mnc
(PID.TID 0000.0001)  KPP_INIT: opening data.kpp
(PID.TID 0000.0001)  OPEN_COPY_DATA_FILE: opening file data.kpp
(PID.TID 0000.0001) // =======================================================
(PID.TID 0000.0001) // Parameter file "data.kpp"
(PID.TID 0000.0001) // =======================================================
(PID.TID 0000.0001) ># KPP parameters
(PID.TID 0000.0001) > &KPP_PARM01
(PID.TID 0000.0001) > KPPmixingMaps   = .FALSE.,
(PID.TID 0000.0001) > KPPwriteState   = .TRUE.,
(PID.TID 0000.0001) > kpp_dumpFreq    = 2592000.
(PID.TID 0000.0001) > kpp_tavefreq    = 2592000.
(PID.TID 0000.0001) > Ricr            = 0.3559
(PID.TID 0000.0001) > Riinfty         = 0.6998
(PID.TID 0000.0001) > /
(PID.TID 0000.0001) 
(PID.TID 0000.0001)  KPP_INIT: finished reading data.kpp
(PID.TID 0000.0001)  PTRACERS_READPARMS: opening data.ptracers
(PID.TID 0000.0001)  OPEN_COPY_DATA_FILE: opening file data.ptracers
(PID.TID 0000.0001) // =======================================================
(PID.TID 0000.0001) // Parameter file "data.ptracers"
(PID.TID 0000.0001) // =======================================================
(PID.TID 0000.0001) > &PTRACERS_PARM01
(PID.TID 0000.0001) > PTRACERS_numInUse=75,
(PID.TID 0000.0001) > PTRACERS_Iter0= 0,
(PID.TID 0000.0001) ># tracer 1 - Dissolved Inorganic Carbon
(PID.TID 0000.0001) > PTRACERS_names(1)='DIC',
(PID.TID 0000.0001) > PTRACERS_units(1)='mmol C/m^3',
(PID.TID 0000.0001) > PTRACERS_advScheme(1)=33,
(PID.TID 0000.0001) > PTRACERS_diffKh(1)=0.E3,
(PID.TID 0000.0001) > PTRACERS_diffKr(1)=1.E-5,
(PID.TID 0000.0001) > PTRACERS_useGMRedi(1)=.FALSE.,
(PID.TID 0000.0001) > PTRACERS_useKPP(1)=.TRUE.,
(PID.TID 0000.0001) > PTRACERS_initialFile(1)='../input/input/loc1_DIC_annprof.bin',
(PID.TID 0000.0001) ># tracer 2 - Nitrate
(PID.TID 0000.0001) > PTRACERS_names(2)='NO3',
(PID.TID 0000.0001) > PTRACERS_units(2)='mmol N/m^3',
(PID.TID 0000.0001) > PTRACERS_advScheme(2)=33,
(PID.TID 0000.0001) > PTRACERS_diffKh(2)=0.E3,
(PID.TID 0000.0001) > PTRACERS_diffKr(2)=1.E-5,
(PID.TID 0000.0001) > PTRACERS_useGMRedi(2)=.FALSE.,
(PID.TID 0000.0001) > PTRACERS_useKPP(2)=.TRUE.,
(PID.TID 0000.0001) > PTRACERS_initialFile(2)='../input/input/loc1_nitr_janprof.bin',
(PID.TID 0000.0001) ># tracer 3 - Nitrite
(PID.TID 0000.0001) > PTRACERS_names(3)='NO2',
(PID.TID 0000.0001) > PTRACERS_units(3)='mmol N/m^3',
(PID.TID 0000.0001) > PTRACERS_advScheme(3)=33,
(PID.TID 0000.0001) > PTRACERS_diffKh(3)=0.E3,
(PID.TID 0000.0001) > PTRACERS_diffKr(3)=1.E-5,
(PID.TID 0000.0001) > PTRACERS_useGMRedi(3)=.FALSE.,
(PID.TID 0000.0001) > PTRACERS_useKPP(3)=.TRUE.,
(PID.TID 0000.0001) > PTRACERS_initialFile(3)='../input/input/loc1_NO2_run83_janprof.bin',
(PID.TID 0000.0001) ># tracer 4 - Ammonium
(PID.TID 0000.0001) > PTRACERS_names(4)='NH4',
(PID.TID 0000.0001) > PTRACERS_units(4)='mmol N/m^3',
(PID.TID 0000.0001) > PTRACERS_advScheme(4)=33,
(PID.TID 0000.0001) > PTRACERS_diffKh(4)=0.E3,
(PID.TID 0000.0001) > PTRACERS_diffKr(4)=1.E-5,
(PID.TID 0000.0001) > PTRACERS_useGMRedi(4)=.FALSE.,
(PID.TID 0000.0001) > PTRACERS_useKPP(4)=.TRUE.,
(PID.TID 0000.0001) > PTRACERS_initialFile(4)='../input/input/loc1_NH4_run83_janprof.bin',
(PID.TID 0000.0001) ># tracer 5 - Dissolved Iron
(PID.TID 0000.0001) > PTRACERS_names(5)='FeT',
(PID.TID 0000.0001) > PTRACERS_units(5)='mmol Fe/m^3',
(PID.TID 0000.0001) > PTRACERS_advScheme(5)=33,
(PID.TID 0000.0001) > PTRACERS_diffKh(5)=0.E3,
(PID.TID 0000.0001) > PTRACERS_diffKr(5)=1.E-5,
(PID.TID 0000.0001) > PTRACERS_useGMRedi(5)=.FALSE.,
(PID.TID 0000.0001) > PTRACERS_useKPP(5)=.TRUE.,
(PID.TID 0000.0001) > PTRACERS_initialFile(5)='../input/input/loc1_FeT_run83_janprof.bin',
(PID.TID 0000.0001) ># tracer 6 - Carbon Biomass: Plankton(1)
(PID.TID 0000.0001) > PTRACERS_names(6)='BIO_1_001',
(PID.TID 0000.0001) > PTRACERS_units(6)='mmol C/m^3',
(PID.TID 0000.0001) > PTRACERS_advScheme(6)=33,
(PID.TID 0000.0001) > PTRACERS_diffKh(6)=0.E3,
(PID.TID 0000.0001) > PTRACERS_diffKr(6)=1.E-5,
(PID.TID 0000.0001) > PTRACERS_useGMRedi(6)=.FALSE.,
(PID.TID 0000.0001) > PTRACERS_useKPP(6)=.TRUE.,
(PID.TID 0000.0001) > PTRACERS_initialFile(6)='../input/input/loc1_C_biomass_janprof.bin',
(PID.TID 0000.0001) ># tracer 7 - Carbon Biomass: Plankton(2)
(PID.TID 0000.0001) > PTRACERS_names(7)='BIO_1_002',
(PID.TID 0000.0001) > PTRACERS_units(7)='mmol C/m^3',
(PID.TID 0000.0001) > PTRACERS_advScheme(7)=33,
(PID.TID 0000.0001) > PTRACERS_diffKh(7)=0.E3,
(PID.TID 0000.0001) > PTRACERS_diffKr(7)=1.E-5,
(PID.TID 0000.0001) > PTRACERS_useGMRedi(7)=.FALSE.,
(PID.TID 0000.0001) > PTRACERS_useKPP(7)=.TRUE.,
(PID.TID 0000.0001) > PTRACERS_initialFile(7)='../input/input/loc1_C_biomass_janprof.bin',
(PID.TID 0000.0001) ># tracer 8 - Carbon Biomass: Plankton(3)
(PID.TID 0000.0001) > PTRACERS_names(8)='BIO_1_003',
(PID.TID 0000.0001) > PTRACERS_units(8)='mmol C/m^3',
(PID.TID 0000.0001) > PTRACERS_advScheme(8)=33,
(PID.TID 0000.0001) > PTRACERS_diffKh(8)=0.E3,
(PID.TID 0000.0001) > PTRACERS_diffKr(8)=1.E-5,
(PID.TID 0000.0001) > PTRACERS_useGMRedi(8)=.FALSE.,
(PID.TID 0000.0001) > PTRACERS_useKPP(8)=.TRUE.,
(PID.TID 0000.0001) > PTRACERS_initialFile(8)='../input/input/loc1_C_biomass_janprof.bin',
(PID.TID 0000.0001) ># tracer 9 - Carbon Biomass: Plankton(4)
(PID.TID 0000.0001) > PTRACERS_names(9)='BIO_1_004',
(PID.TID 0000.0001) > PTRACERS_units(9)='mmol C/m^3',
(PID.TID 0000.0001) > PTRACERS_advScheme(9)=33,
(PID.TID 0000.0001) > PTRACERS_diffKh(9)=0.E3,
(PID.TID 0000.0001) > PTRACERS_diffKr(9)=1.E-5,
(PID.TID 0000.0001) > PTRACERS_useGMRedi(9)=.FALSE.,
(PID.TID 0000.0001) > PTRACERS_useKPP(9)=.TRUE.,
(PID.TID 0000.0001) > PTRACERS_initialFile(9)='../input/input/loc1_C_biomass_janprof.bin',
(PID.TID 0000.0001) ># tracer 10 - Carbon Biomass: Plankton(5)
(PID.TID 0000.0001) > PTRACERS_names(10)='BIO_1_005',
(PID.TID 0000.0001) > PTRACERS_units(10)='mmol C/m^3',
(PID.TID 0000.0001) > PTRACERS_advScheme(10)=33,
(PID.TID 0000.0001) > PTRACERS_diffKh(10)=0.E3,
(PID.TID 0000.0001) > PTRACERS_diffKr(10)=1.E-5,
(PID.TID 0000.0001) > PTRACERS_useGMRedi(10)=.FALSE.,
(PID.TID 0000.0001) > PTRACERS_useKPP(10)=.TRUE.,
(PID.TID 0000.0001) > PTRACERS_initialFile(10)='../input/input/loc1_C_biomass_janprof.bin',
(PID.TID 0000.0001) ># tracer 11 - Carbon Biomass: Plankton(6)
(PID.TID 0000.0001) > PTRACERS_names(11)='BIO_1_006',
(PID.TID 0000.0001) > PTRACERS_units(11)='mmol C/m^3',
(PID.TID 0000.0001) > PTRACERS_advScheme(11)=33,
(PID.TID 0000.0001) > PTRACERS_diffKh(11)=0.E3,
(PID.TID 0000.0001) > PTRACERS_diffKr(11)=1.E-5,
(PID.TID 0000.0001) > PTRACERS_useGMRedi(11)=.FALSE.,
(PID.TID 0000.0001) > PTRACERS_useKPP(11)=.TRUE.,
(PID.TID 0000.0001) > PTRACERS_initialFile(11)='../input/input/loc1_C_biomass_janprof.bin',
(PID.TID 0000.0001) ># tracer 12 - Carbon Biomass: Plankton(7)
(PID.TID 0000.0001) > PTRACERS_names(12)='BIO_1_007',
(PID.TID 0000.0001) > PTRACERS_units(12)='mmol C/m^3',
(PID.TID 0000.0001) > PTRACERS_advScheme(12)=33,
(PID.TID 0000.0001) > PTRACERS_diffKh(12)=0.E3,
(PID.TID 0000.0001) > PTRACERS_diffKr(12)=1.E-5,
(PID.TID 0000.0001) > PTRACERS_useGMRedi(12)=.FALSE.,
(PID.TID 0000.0001) > PTRACERS_useKPP(12)=.TRUE.,
(PID.TID 0000.0001) > PTRACERS_initialFile(12)='../input/input/loc1_C_biomass_janprof.bin',
(PID.TID 0000.0001) ># tracer 13 - Carbon Biomass: Plankton(8)
(PID.TID 0000.0001) > PTRACERS_names(13)='BIO_1_008',
(PID.TID 0000.0001) > PTRACERS_units(13)='mmol C/m^3',
(PID.TID 0000.0001) > PTRACERS_advScheme(13)=33,
(PID.TID 0000.0001) > PTRACERS_diffKh(13)=0.E3,
(PID.TID 0000.0001) > PTRACERS_diffKr(13)=1.E-5,
(PID.TID 0000.0001) > PTRACERS_useGMRedi(13)=.FALSE.,
(PID.TID 0000.0001) > PTRACERS_useKPP(13)=.TRUE.,
(PID.TID 0000.0001) > PTRACERS_initialFile(13)='../input/input/loc1_C_biomass_janprof.bin',
(PID.TID 0000.0001) ># tracer 14 - Carbon Biomass: Plankton(9)
(PID.TID 0000.0001) > PTRACERS_names(14)='BIO_1_009',
(PID.TID 0000.0001) > PTRACERS_units(14)='mmol C/m^3',
(PID.TID 0000.0001) > PTRACERS_advScheme(14)=33,
(PID.TID 0000.0001) > PTRACERS_diffKh(14)=0.E3,
(PID.TID 0000.0001) > PTRACERS_diffKr(14)=1.E-5,
(PID.TID 0000.0001) > PTRACERS_useGMRedi(14)=.FALSE.,
(PID.TID 0000.0001) > PTRACERS_useKPP(14)=.TRUE.,
(PID.TID 0000.0001) > PTRACERS_initialFile(14)='../input/input/loc1_C_biomass_janprof.bin',
(PID.TID 0000.0001) ># tracer 15 - Carbon Biomass: Plankton(10)
(PID.TID 0000.0001) > PTRACERS_names(15)='BIO_1_010',
(PID.TID 0000.0001) > PTRACERS_units(15)='mmol C/m^3',
(PID.TID 0000.0001) > PTRACERS_advScheme(15)=33,
(PID.TID 0000.0001) > PTRACERS_diffKh(15)=0.E3,
(PID.TID 0000.0001) > PTRACERS_diffKr(15)=1.E-5,
(PID.TID 0000.0001) > PTRACERS_useGMRedi(15)=.FALSE.,
(PID.TID 0000.0001) > PTRACERS_useKPP(15)=.TRUE.,
(PID.TID 0000.0001) > PTRACERS_initialFile(15)='../input/input/loc1_C_biomass_janprof.bin',
(PID.TID 0000.0001) ># tracer 16 - Carbon Biomass: Plankton(11)
(PID.TID 0000.0001) > PTRACERS_names(16)='BIO_1_011',
(PID.TID 0000.0001) > PTRACERS_units(16)='mmol C/m^3',
(PID.TID 0000.0001) > PTRACERS_advScheme(16)=33,
(PID.TID 0000.0001) > PTRACERS_diffKh(16)=0.E3,
(PID.TID 0000.0001) > PTRACERS_diffKr(16)=1.E-5,
(PID.TID 0000.0001) > PTRACERS_useGMRedi(16)=.FALSE.,
(PID.TID 0000.0001) > PTRACERS_useKPP(16)=.TRUE.,
(PID.TID 0000.0001) > PTRACERS_initialFile(16)='../input/input/loc1_C_biomass_janprof.bin',
(PID.TID 0000.0001) ># tracer 17 - Carbon Biomass: Plankton(12)
(PID.TID 0000.0001) > PTRACERS_names(17)='BIO_1_012',
(PID.TID 0000.0001) > PTRACERS_units(17)='mmol C/m^3',
(PID.TID 0000.0001) > PTRACERS_advScheme(17)=33,
(PID.TID 0000.0001) > PTRACERS_diffKh(17)=0.E3,
(PID.TID 0000.0001) > PTRACERS_diffKr(17)=1.E-5,
(PID.TID 0000.0001) > PTRACERS_useGMRedi(17)=.FALSE.,
(PID.TID 0000.0001) > PTRACERS_useKPP(17)=.TRUE.,
(PID.TID 0000.0001) > PTRACERS_initialFile(17)='../input/input/loc1_C_biomass_janprof.bin',
(PID.TID 0000.0001) ># tracer 18 - Carbon Biomass: Plankton(13)
(PID.TID 0000.0001) > PTRACERS_names(18)='BIO_1_013',
(PID.TID 0000.0001) > PTRACERS_units(18)='mmol C/m^3',
(PID.TID 0000.0001) > PTRACERS_advScheme(18)=33,
(PID.TID 0000.0001) > PTRACERS_diffKh(18)=0.E3,
(PID.TID 0000.0001) > PTRACERS_diffKr(18)=1.E-5,
(PID.TID 0000.0001) > PTRACERS_useGMRedi(18)=.FALSE.,
(PID.TID 0000.0001) > PTRACERS_useKPP(18)=.TRUE.,
(PID.TID 0000.0001) > PTRACERS_initialFile(18)='../input/input/loc1_C_biomass_janprof.bin',
(PID.TID 0000.0001) ># tracer 19 - Carbon Biomass: Plankton(14)
(PID.TID 0000.0001) > PTRACERS_names(19)='BIO_1_014',
(PID.TID 0000.0001) > PTRACERS_units(19)='mmol C/m^3',
(PID.TID 0000.0001) > PTRACERS_advScheme(19)=33,
(PID.TID 0000.0001) > PTRACERS_diffKh(19)=0.E3,
(PID.TID 0000.0001) > PTRACERS_diffKr(19)=1.E-5,
(PID.TID 0000.0001) > PTRACERS_useGMRedi(19)=.FALSE.,
(PID.TID 0000.0001) > PTRACERS_useKPP(19)=.TRUE.,
(PID.TID 0000.0001) > PTRACERS_initialFile(19)='../input/input/loc1_C_biomass_janprof.bin',
(PID.TID 0000.0001) ># tracer 20 - Carbon Biomass: Plankton(15)
(PID.TID 0000.0001) > PTRACERS_names(20)='BIO_1_015',
(PID.TID 0000.0001) > PTRACERS_units(20)='mmol C/m^3',
(PID.TID 0000.0001) > PTRACERS_advScheme(20)=33,
(PID.TID 0000.0001) > PTRACERS_diffKh(20)=0.E3,
(PID.TID 0000.0001) > PTRACERS_diffKr(20)=1.E-5,
(PID.TID 0000.0001) > PTRACERS_useGMRedi(20)=.FALSE.,
(PID.TID 0000.0001) > PTRACERS_useKPP(20)=.TRUE.,
(PID.TID 0000.0001) > PTRACERS_initialFile(20)='../input/input/loc1_C_biomass_janprof.bin',
(PID.TID 0000.0001) ># tracer 21 - Carbon Biomass: Plankton(16)
(PID.TID 0000.0001) > PTRACERS_names(21)='BIO_1_016',
(PID.TID 0000.0001) > PTRACERS_units(21)='mmol C/m^3',
(PID.TID 0000.0001) > PTRACERS_advScheme(21)=33,
(PID.TID 0000.0001) > PTRACERS_diffKh(21)=0.E3,
(PID.TID 0000.0001) > PTRACERS_diffKr(21)=1.E-5,
(PID.TID 0000.0001) > PTRACERS_useGMRedi(21)=.FALSE.,
(PID.TID 0000.0001) > PTRACERS_useKPP(21)=.TRUE.,
(PID.TID 0000.0001) > PTRACERS_initialFile(21)='../input/input/loc1_C_biomass_janprof.bin',
(PID.TID 0000.0001) ># tracer 22 - Nitrogen Biomass: Plankton(1)
(PID.TID 0000.0001) > PTRACERS_names(22)='BIO_2_001',
(PID.TID 0000.0001) > PTRACERS_units(22)='mmol N/m^3',
(PID.TID 0000.0001) > PTRACERS_advScheme(22)=33,
(PID.TID 0000.0001) > PTRACERS_diffKh(22)=0.E3,
(PID.TID 0000.0001) > PTRACERS_diffKr(22)=1.E-5,
(PID.TID 0000.0001) > PTRACERS_useGMRedi(22)=.FALSE.,
(PID.TID 0000.0001) > PTRACERS_useKPP(22)=.TRUE.,
(PID.TID 0000.0001) > PTRACERS_initialFile(22)='../input/input/loc1_N_biomass_janprof.bin',
(PID.TID 0000.0001) ># tracer 23 - Nitrogen Biomass: Plankton(2)
(PID.TID 0000.0001) > PTRACERS_names(23)='BIO_2_002',
(PID.TID 0000.0001) > PTRACERS_units(23)='mmol N/m^3',
(PID.TID 0000.0001) > PTRACERS_advScheme(23)=33,
(PID.TID 0000.0001) > PTRACERS_diffKh(23)=0.E3,
(PID.TID 0000.0001) > PTRACERS_diffKr(23)=1.E-5,
(PID.TID 0000.0001) > PTRACERS_useGMRedi(23)=.FALSE.,
(PID.TID 0000.0001) > PTRACERS_useKPP(23)=.TRUE.,
(PID.TID 0000.0001) > PTRACERS_initialFile(23)='../input/input/loc1_N_biomass_janprof.bin',
(PID.TID 0000.0001) ># tracer 24 - Nitrogen Biomass: Plankton(3)
(PID.TID 0000.0001) > PTRACERS_names(24)='BIO_2_003',
(PID.TID 0000.0001) > PTRACERS_units(24)='mmol N/m^3',
(PID.TID 0000.0001) > PTRACERS_advScheme(24)=33,
(PID.TID 0000.0001) > PTRACERS_diffKh(24)=0.E3,
(PID.TID 0000.0001) > PTRACERS_diffKr(24)=1.E-5,
(PID.TID 0000.0001) > PTRACERS_useGMRedi(24)=.FALSE.,
(PID.TID 0000.0001) > PTRACERS_useKPP(24)=.TRUE.,
(PID.TID 0000.0001) > PTRACERS_initialFile(24)='../input/input/loc1_N_biomass_janprof.bin',
(PID.TID 0000.0001) ># tracer 25 - Nitrogen Biomass: Plankton(4)
(PID.TID 0000.0001) > PTRACERS_names(25)='BIO_2_004',
(PID.TID 0000.0001) > PTRACERS_units(25)='mmol N/m^3',
(PID.TID 0000.0001) > PTRACERS_advScheme(25)=33,
(PID.TID 0000.0001) > PTRACERS_diffKh(25)=0.E3,
(PID.TID 0000.0001) > PTRACERS_diffKr(25)=1.E-5,
(PID.TID 0000.0001) > PTRACERS_useGMRedi(25)=.FALSE.,
(PID.TID 0000.0001) > PTRACERS_useKPP(25)=.TRUE.,
(PID.TID 0000.0001) > PTRACERS_initialFile(25)='../input/input/loc1_N_biomass_janprof.bin',
(PID.TID 0000.0001) ># tracer 26 - Nitrogen Biomass: Plankton(5)
(PID.TID 0000.0001) > PTRACERS_names(26)='BIO_2_005',
(PID.TID 0000.0001) > PTRACERS_units(26)='mmol N/m^3',
(PID.TID 0000.0001) > PTRACERS_advScheme(26)=33,
(PID.TID 0000.0001) > PTRACERS_diffKh(26)=0.E3,
(PID.TID 0000.0001) > PTRACERS_diffKr(26)=1.E-5,
(PID.TID 0000.0001) > PTRACERS_useGMRedi(26)=.FALSE.,
(PID.TID 0000.0001) > PTRACERS_useKPP(26)=.TRUE.,
(PID.TID 0000.0001) > PTRACERS_initialFile(26)='../input/input/loc1_N_biomass_janprof.bin',
(PID.TID 0000.0001) ># tracer 27 - Nitrogen Biomass: Plankton(6)
(PID.TID 0000.0001) > PTRACERS_names(27)='BIO_2_006',
(PID.TID 0000.0001) > PTRACERS_units(27)='mmol N/m^3',
(PID.TID 0000.0001) > PTRACERS_advScheme(27)=33,
(PID.TID 0000.0001) > PTRACERS_diffKh(27)=0.E3,
(PID.TID 0000.0001) > PTRACERS_diffKr(27)=1.E-5,
(PID.TID 0000.0001) > PTRACERS_useGMRedi(27)=.FALSE.,
(PID.TID 0000.0001) > PTRACERS_useKPP(27)=.TRUE.,
(PID.TID 0000.0001) > PTRACERS_initialFile(27)='../input/input/loc1_N_biomass_janprof.bin',
(PID.TID 0000.0001) ># tracer 28 - Nitrogen Biomass: Plankton(7)
(PID.TID 0000.0001) > PTRACERS_names(28)='BIO_2_007',
(PID.TID 0000.0001) > PTRACERS_units(28)='mmol N/m^3',
(PID.TID 0000.0001) > PTRACERS_advScheme(28)=33,
(PID.TID 0000.0001) > PTRACERS_diffKh(28)=0.E3,
(PID.TID 0000.0001) > PTRACERS_diffKr(28)=1.E-5,
(PID.TID 0000.0001) > PTRACERS_useGMRedi(28)=.FALSE.,
(PID.TID 0000.0001) > PTRACERS_useKPP(28)=.TRUE.,
(PID.TID 0000.0001) > PTRACERS_initialFile(28)='../input/input/loc1_N_biomass_janprof.bin',
(PID.TID 0000.0001) ># tracer 29 - Nitrogen Biomass: Plankton(8)
(PID.TID 0000.0001) > PTRACERS_names(29)='BIO_2_008',
(PID.TID 0000.0001) > PTRACERS_units(29)='mmol N/m^3',
(PID.TID 0000.0001) > PTRACERS_advScheme(29)=33,
(PID.TID 0000.0001) > PTRACERS_diffKh(29)=0.E3,
(PID.TID 0000.0001) > PTRACERS_diffKr(29)=1.E-5,
(PID.TID 0000.0001) > PTRACERS_useGMRedi(29)=.FALSE.,
(PID.TID 0000.0001) > PTRACERS_useKPP(29)=.TRUE.,
(PID.TID 0000.0001) > PTRACERS_initialFile(29)='../input/input/loc1_N_biomass_janprof.bin',
(PID.TID 0000.0001) ># tracer 30 - Nitrogen Biomass: Plankton(9)
(PID.TID 0000.0001) > PTRACERS_names(30)='BIO_2_009',
(PID.TID 0000.0001) > PTRACERS_units(30)='mmol N/m^3',
(PID.TID 0000.0001) > PTRACERS_advScheme(30)=33,
(PID.TID 0000.0001) > PTRACERS_diffKh(30)=0.E3,
(PID.TID 0000.0001) > PTRACERS_diffKr(30)=1.E-5,
(PID.TID 0000.0001) > PTRACERS_useGMRedi(30)=.FALSE.,
(PID.TID 0000.0001) > PTRACERS_useKPP(30)=.TRUE.,
(PID.TID 0000.0001) > PTRACERS_initialFile(30)='../input/input/loc1_N_biomass_janprof.bin',
(PID.TID 0000.0001) ># tracer 31 - Nitrogen Biomass: Plankton(10)
(PID.TID 0000.0001) > PTRACERS_names(31)='BIO_2_010',
(PID.TID 0000.0001) > PTRACERS_units(31)='mmol N/m^3',
(PID.TID 0000.0001) > PTRACERS_advScheme(31)=33,
(PID.TID 0000.0001) > PTRACERS_diffKh(31)=0.E3,
(PID.TID 0000.0001) > PTRACERS_diffKr(31)=1.E-5,
(PID.TID 0000.0001) > PTRACERS_useGMRedi(31)=.FALSE.,
(PID.TID 0000.0001) > PTRACERS_useKPP(31)=.TRUE.,
(PID.TID 0000.0001) > PTRACERS_initialFile(31)='../input/input/loc1_N_biomass_janprof.bin',
(PID.TID 0000.0001) ># tracer 32 - Nitrogen Biomass: Plankton(11)
(PID.TID 0000.0001) > PTRACERS_names(32)='BIO_2_011',
(PID.TID 0000.0001) > PTRACERS_units(32)='mmol N/m^3',
(PID.TID 0000.0001) > PTRACERS_advScheme(32)=33,
(PID.TID 0000.0001) > PTRACERS_diffKh(32)=0.E3,
(PID.TID 0000.0001) > PTRACERS_diffKr(32)=1.E-5,
(PID.TID 0000.0001) > PTRACERS_useGMRedi(32)=.FALSE.,
(PID.TID 0000.0001) > PTRACERS_useKPP(32)=.TRUE.,
(PID.TID 0000.0001) > PTRACERS_initialFile(32)='../input/input/loc1_N_biomass_janprof.bin',
(PID.TID 0000.0001) ># tracer 33 - Nitrogen Biomass: Plankton(12)
(PID.TID 0000.0001) > PTRACERS_names(33)='BIO_2_012',
(PID.TID 0000.0001) > PTRACERS_units(33)='mmol N/m^3',
(PID.TID 0000.0001) > PTRACERS_advScheme(33)=33,
(PID.TID 0000.0001) > PTRACERS_diffKh(33)=0.E3,
(PID.TID 0000.0001) > PTRACERS_diffKr(33)=1.E-5,
(PID.TID 0000.0001) > PTRACERS_useGMRedi(33)=.FALSE.,
(PID.TID 0000.0001) > PTRACERS_useKPP(33)=.TRUE.,
(PID.TID 0000.0001) > PTRACERS_initialFile(33)='../input/input/loc1_N_biomass_janprof.bin',
(PID.TID 0000.0001) ># tracer 34 - Nitrogen Biomass: Plankton(13)
(PID.TID 0000.0001) > PTRACERS_names(34)='BIO_2_013',
(PID.TID 0000.0001) > PTRACERS_units(34)='mmol N/m^3',
(PID.TID 0000.0001) > PTRACERS_advScheme(34)=33,
(PID.TID 0000.0001) > PTRACERS_diffKh(34)=0.E3,
(PID.TID 0000.0001) > PTRACERS_diffKr(34)=1.E-5,
(PID.TID 0000.0001) > PTRACERS_useGMRedi(34)=.FALSE.,
(PID.TID 0000.0001) > PTRACERS_useKPP(34)=.TRUE.,
(PID.TID 0000.0001) > PTRACERS_initialFile(34)='../input/input/loc1_N_biomass_janprof.bin',
(PID.TID 0000.0001) ># tracer 35 - Nitrogen Biomass: Plankton(14)
(PID.TID 0000.0001) > PTRACERS_names(35)='BIO_2_014',
(PID.TID 0000.0001) > PTRACERS_units(35)='mmol N/m^3',
(PID.TID 0000.0001) > PTRACERS_advScheme(35)=33,
(PID.TID 0000.0001) > PTRACERS_diffKh(35)=0.E3,
(PID.TID 0000.0001) > PTRACERS_diffKr(35)=1.E-5,
(PID.TID 0000.0001) > PTRACERS_useGMRedi(35)=.FALSE.,
(PID.TID 0000.0001) > PTRACERS_useKPP(35)=.TRUE.,
(PID.TID 0000.0001) > PTRACERS_initialFile(35)='../input/input/loc1_N_biomass_janprof.bin',
(PID.TID 0000.0001) ># tracer 36 - Nitrogen Biomass: Plankton(15)
(PID.TID 0000.0001) > PTRACERS_names(36)='BIO_2_015',
(PID.TID 0000.0001) > PTRACERS_units(36)='mmol N/m^3',
(PID.TID 0000.0001) > PTRACERS_advScheme(36)=33,
(PID.TID 0000.0001) > PTRACERS_diffKh(36)=0.E3,
(PID.TID 0000.0001) > PTRACERS_diffKr(36)=1.E-5,
(PID.TID 0000.0001) > PTRACERS_useGMRedi(36)=.FALSE.,
(PID.TID 0000.0001) > PTRACERS_useKPP(36)=.TRUE.,
(PID.TID 0000.0001) > PTRACERS_initialFile(36)='../input/input/loc1_N_biomass_janprof.bin',
(PID.TID 0000.0001) ># tracer 37 - Nitrogen Biomass: Plankton(16)
(PID.TID 0000.0001) > PTRACERS_names(37)='BIO_2_016',
(PID.TID 0000.0001) > PTRACERS_units(37)='mmol N/m^3',
(PID.TID 0000.0001) > PTRACERS_advScheme(37)=33,
(PID.TID 0000.0001) > PTRACERS_diffKh(37)=0.E3,
(PID.TID 0000.0001) > PTRACERS_diffKr(37)=1.E-5,
(PID.TID 0000.0001) > PTRACERS_useGMRedi(37)=.FALSE.,
(PID.TID 0000.0001) > PTRACERS_useKPP(37)=.TRUE.,
(PID.TID 0000.0001) > PTRACERS_initialFile(37)='../input/input/loc1_N_biomass_janprof.bin',
(PID.TID 0000.0001) ># tracer 38 - Iron Biomass: Plankton(1)
(PID.TID 0000.0001) > PTRACERS_names(38)='BIO_3_001',
(PID.TID 0000.0001) > PTRACERS_units(38)='mmol Fe/m^3',
(PID.TID 0000.0001) > PTRACERS_advScheme(38)=33,
(PID.TID 0000.0001) > PTRACERS_diffKh(38)=0.E3,
(PID.TID 0000.0001) > PTRACERS_diffKr(38)=1.E-5,
(PID.TID 0000.0001) > PTRACERS_useGMRedi(38)=.FALSE.,
(PID.TID 0000.0001) > PTRACERS_useKPP(38)=.TRUE.,
(PID.TID 0000.0001) > PTRACERS_initialFile(38)='../input/input/loc1_Fe_biomass_janprof.bin',
(PID.TID 0000.0001) ># tracer 39 - Iron Biomass: Plankton(2)
(PID.TID 0000.0001) > PTRACERS_names(39)='BIO_3_002',
(PID.TID 0000.0001) > PTRACERS_units(39)='mmol Fe/m^3',
(PID.TID 0000.0001) > PTRACERS_advScheme(39)=33,
(PID.TID 0000.0001) > PTRACERS_diffKh(39)=0.E3,
(PID.TID 0000.0001) > PTRACERS_diffKr(39)=1.E-5,
(PID.TID 0000.0001) > PTRACERS_useGMRedi(39)=.FALSE.,
(PID.TID 0000.0001) > PTRACERS_useKPP(39)=.TRUE.,
(PID.TID 0000.0001) > PTRACERS_initialFile(39)='../input/input/loc1_Fe_biomass_janprof.bin',
(PID.TID 0000.0001) ># tracer 40 - Iron Biomass: Plankton(3)
(PID.TID 0000.0001) > PTRACERS_names(40)='BIO_3_003',
(PID.TID 0000.0001) > PTRACERS_units(40)='mmol Fe/m^3',
(PID.TID 0000.0001) > PTRACERS_advScheme(40)=33,
(PID.TID 0000.0001) > PTRACERS_diffKh(40)=0.E3,
(PID.TID 0000.0001) > PTRACERS_diffKr(40)=1.E-5,
(PID.TID 0000.0001) > PTRACERS_useGMRedi(40)=.FALSE.,
(PID.TID 0000.0001) > PTRACERS_useKPP(40)=.TRUE.,
(PID.TID 0000.0001) > PTRACERS_initialFile(40)='../input/input/loc1_Fe_biomass_janprof.bin',
(PID.TID 0000.0001) ># tracer 41 - Iron Biomass: Plankton(4)
(PID.TID 0000.0001) > PTRACERS_names(41)='BIO_3_004',
(PID.TID 0000.0001) > PTRACERS_units(41)='mmol Fe/m^3',
(PID.TID 0000.0001) > PTRACERS_advScheme(41)=33,
(PID.TID 0000.0001) > PTRACERS_diffKh(41)=0.E3,
(PID.TID 0000.0001) > PTRACERS_diffKr(41)=1.E-5,
(PID.TID 0000.0001) > PTRACERS_useGMRedi(41)=.FALSE.,
(PID.TID 0000.0001) > PTRACERS_useKPP(41)=.TRUE.,
(PID.TID 0000.0001) > PTRACERS_initialFile(41)='../input/input/loc1_Fe_biomass_janprof.bin',
(PID.TID 0000.0001) ># tracer 42 - Iron Biomass: Plankton(5)
(PID.TID 0000.0001) > PTRACERS_names(42)='BIO_3_005',
(PID.TID 0000.0001) > PTRACERS_units(42)='mmol Fe/m^3',
(PID.TID 0000.0001) > PTRACERS_advScheme(42)=33,
(PID.TID 0000.0001) > PTRACERS_diffKh(42)=0.E3,
(PID.TID 0000.0001) > PTRACERS_diffKr(42)=1.E-5,
(PID.TID 0000.0001) > PTRACERS_useGMRedi(42)=.FALSE.,
(PID.TID 0000.0001) > PTRACERS_useKPP(42)=.TRUE.,
(PID.TID 0000.0001) > PTRACERS_initialFile(42)='../input/input/loc1_Fe_biomass_janprof.bin',
(PID.TID 0000.0001) ># tracer 43 - Iron Biomass: Plankton(6)
(PID.TID 0000.0001) > PTRACERS_names(43)='BIO_3_006',
(PID.TID 0000.0001) > PTRACERS_units(43)='mmol Fe/m^3',
(PID.TID 0000.0001) > PTRACERS_advScheme(43)=33,
(PID.TID 0000.0001) > PTRACERS_diffKh(43)=0.E3,
(PID.TID 0000.0001) > PTRACERS_diffKr(43)=1.E-5,
(PID.TID 0000.0001) > PTRACERS_useGMRedi(43)=.FALSE.,
(PID.TID 0000.0001) > PTRACERS_useKPP(43)=.TRUE.,
(PID.TID 0000.0001) > PTRACERS_initialFile(43)='../input/input/loc1_Fe_biomass_janprof.bin',
(PID.TID 0000.0001) ># tracer 44 - Iron Biomass: Plankton(7)
(PID.TID 0000.0001) > PTRACERS_names(44)='BIO_3_007',
(PID.TID 0000.0001) > PTRACERS_units(44)='mmol Fe/m^3',
(PID.TID 0000.0001) > PTRACERS_advScheme(44)=33,
(PID.TID 0000.0001) > PTRACERS_diffKh(44)=0.E3,
(PID.TID 0000.0001) > PTRACERS_diffKr(44)=1.E-5,
(PID.TID 0000.0001) > PTRACERS_useGMRedi(44)=.FALSE.,
(PID.TID 0000.0001) > PTRACERS_useKPP(44)=.TRUE.,
(PID.TID 0000.0001) > PTRACERS_initialFile(44)='../input/input/loc1_Fe_biomass_janprof.bin',
(PID.TID 0000.0001) ># tracer 45 - Iron Biomass: Plankton(8)
(PID.TID 0000.0001) > PTRACERS_names(45)='BIO_3_008',
(PID.TID 0000.0001) > PTRACERS_units(45)='mmol Fe/m^3',
(PID.TID 0000.0001) > PTRACERS_advScheme(45)=33,
(PID.TID 0000.0001) > PTRACERS_diffKh(45)=0.E3,
(PID.TID 0000.0001) > PTRACERS_diffKr(45)=1.E-5,
(PID.TID 0000.0001) > PTRACERS_useGMRedi(45)=.FALSE.,
(PID.TID 0000.0001) > PTRACERS_useKPP(45)=.TRUE.,
(PID.TID 0000.0001) > PTRACERS_initialFile(45)='../input/input/loc1_Fe_biomass_janprof.bin',
(PID.TID 0000.0001) ># tracer 46 - Iron Biomass: Plankton(9)
(PID.TID 0000.0001) > PTRACERS_names(46)='BIO_3_009',
(PID.TID 0000.0001) > PTRACERS_units(46)='mmol Fe/m^3',
(PID.TID 0000.0001) > PTRACERS_advScheme(46)=33,
(PID.TID 0000.0001) > PTRACERS_diffKh(46)=0.E3,
(PID.TID 0000.0001) > PTRACERS_diffKr(46)=1.E-5,
(PID.TID 0000.0001) > PTRACERS_useGMRedi(46)=.FALSE.,
(PID.TID 0000.0001) > PTRACERS_useKPP(46)=.TRUE.,
(PID.TID 0000.0001) > PTRACERS_initialFile(46)='../input/input/loc1_Fe_biomass_janprof.bin',
(PID.TID 0000.0001) ># tracer 47 - Iron Biomass: Plankton(10)
(PID.TID 0000.0001) > PTRACERS_names(47)='BIO_3_010',
(PID.TID 0000.0001) > PTRACERS_units(47)='mmol Fe/m^3',
(PID.TID 0000.0001) > PTRACERS_advScheme(47)=33,
(PID.TID 0000.0001) > PTRACERS_diffKh(47)=0.E3,
(PID.TID 0000.0001) > PTRACERS_diffKr(47)=1.E-5,
(PID.TID 0000.0001) > PTRACERS_useGMRedi(47)=.FALSE.,
(PID.TID 0000.0001) > PTRACERS_useKPP(47)=.TRUE.,
(PID.TID 0000.0001) > PTRACERS_initialFile(47)='../input/input/loc1_Fe_biomass_janprof.bin',
(PID.TID 0000.0001) ># tracer 48 - Iron Biomass: Plankton(11)
(PID.TID 0000.0001) > PTRACERS_names(48)='BIO_3_011',
(PID.TID 0000.0001) > PTRACERS_units(48)='mmol Fe/m^3',
(PID.TID 0000.0001) > PTRACERS_advScheme(48)=33,
(PID.TID 0000.0001) > PTRACERS_diffKh(48)=0.E3,
(PID.TID 0000.0001) > PTRACERS_diffKr(48)=1.E-5,
(PID.TID 0000.0001) > PTRACERS_useGMRedi(48)=.FALSE.,
(PID.TID 0000.0001) > PTRACERS_useKPP(48)=.TRUE.,
(PID.TID 0000.0001) > PTRACERS_initialFile(48)='../input/input/loc1_Fe_biomass_janprof.bin',
(PID.TID 0000.0001) ># tracer 49 - Iron Biomass: Plankton(12)
(PID.TID 0000.0001) > PTRACERS_names(49)='BIO_3_012',
(PID.TID 0000.0001) > PTRACERS_units(49)='mmol Fe/m^3',
(PID.TID 0000.0001) > PTRACERS_advScheme(49)=33,
(PID.TID 0000.0001) > PTRACERS_diffKh(49)=0.E3,
(PID.TID 0000.0001) > PTRACERS_diffKr(49)=1.E-5,
(PID.TID 0000.0001) > PTRACERS_useGMRedi(49)=.FALSE.,
(PID.TID 0000.0001) > PTRACERS_useKPP(49)=.TRUE.,
(PID.TID 0000.0001) > PTRACERS_initialFile(49)='../input/input/loc1_Fe_biomass_janprof.bin',
(PID.TID 0000.0001) ># tracer 50 - Iron Biomass: Plankton(13)
(PID.TID 0000.0001) > PTRACERS_names(50)='BIO_3_013',
(PID.TID 0000.0001) > PTRACERS_units(50)='mmol Fe/m^3',
(PID.TID 0000.0001) > PTRACERS_advScheme(50)=33,
(PID.TID 0000.0001) > PTRACERS_diffKh(50)=0.E3,
(PID.TID 0000.0001) > PTRACERS_diffKr(50)=1.E-5,
(PID.TID 0000.0001) > PTRACERS_useGMRedi(50)=.FALSE.,
(PID.TID 0000.0001) > PTRACERS_useKPP(50)=.TRUE.,
(PID.TID 0000.0001) > PTRACERS_initialFile(50)='../input/input/loc1_Fe_biomass_janprof.bin',
(PID.TID 0000.0001) ># tracer 51 - Iron Biomass: Plankton(14)
(PID.TID 0000.0001) > PTRACERS_names(51)='BIO_3_014',
(PID.TID 0000.0001) > PTRACERS_units(51)='mmol Fe/m^3',
(PID.TID 0000.0001) > PTRACERS_advScheme(51)=33,
(PID.TID 0000.0001) > PTRACERS_diffKh(51)=0.E3,
(PID.TID 0000.0001) > PTRACERS_diffKr(51)=1.E-5,
(PID.TID 0000.0001) > PTRACERS_useGMRedi(51)=.FALSE.,
(PID.TID 0000.0001) > PTRACERS_useKPP(51)=.TRUE.,
(PID.TID 0000.0001) > PTRACERS_initialFile(51)='../input/input/loc1_Fe_biomass_janprof.bin',
(PID.TID 0000.0001) ># tracer 52 - Iron Biomass: Plankton(15)
(PID.TID 0000.0001) > PTRACERS_names(52)='BIO_3_015',
(PID.TID 0000.0001) > PTRACERS_units(52)='mmol Fe/m^3',
(PID.TID 0000.0001) > PTRACERS_advScheme(52)=33,
(PID.TID 0000.0001) > PTRACERS_diffKh(52)=0.E3,
(PID.TID 0000.0001) > PTRACERS_diffKr(52)=1.E-5,
(PID.TID 0000.0001) > PTRACERS_useGMRedi(52)=.FALSE.,
(PID.TID 0000.0001) > PTRACERS_useKPP(52)=.TRUE.,
(PID.TID 0000.0001) > PTRACERS_initialFile(52)='../input/input/loc1_Fe_biomass_janprof.bin',
(PID.TID 0000.0001) ># tracer 53 - Iron Biomass: Plankton(16)
(PID.TID 0000.0001) > PTRACERS_names(53)='BIO_3_016',
(PID.TID 0000.0001) > PTRACERS_units(53)='mmol Fe/m^3',
(PID.TID 0000.0001) > PTRACERS_advScheme(53)=33,
(PID.TID 0000.0001) > PTRACERS_diffKh(53)=0.E3,
(PID.TID 0000.0001) > PTRACERS_diffKr(53)=1.E-5,
(PID.TID 0000.0001) > PTRACERS_useGMRedi(53)=.FALSE.,
(PID.TID 0000.0001) > PTRACERS_useKPP(53)=.TRUE.,
(PID.TID 0000.0001) > PTRACERS_initialFile(53)='../input/input/loc1_Fe_biomass_janprof.bin',
(PID.TID 0000.0001) ># tracer 54 - Chlorophyll Biomass: Plankton(1)
(PID.TID 0000.0001) > PTRACERS_names(54)='BIO_4_001',
(PID.TID 0000.0001) > PTRACERS_units(54)='mg Chl/m^3',
(PID.TID 0000.0001) > PTRACERS_advScheme(54)=33,
(PID.TID 0000.0001) > PTRACERS_diffKh(54)=0.E3,
(PID.TID 0000.0001) > PTRACERS_diffKr(54)=1.E-5,
(PID.TID 0000.0001) > PTRACERS_useGMRedi(54)=.FALSE.,
(PID.TID 0000.0001) > PTRACERS_useKPP(54)=.TRUE.,
(PID.TID 0000.0001) > PTRACERS_initialFile(54)='../input/input/loc1_chlorophyll_janprof.bin',
(PID.TID 0000.0001) ># tracer 55 - Chlorophyll Biomass: Plankton(2)
(PID.TID 0000.0001) > PTRACERS_names(55)='BIO_4_002',
(PID.TID 0000.0001) > PTRACERS_units(55)='mg Chl/m^3',
(PID.TID 0000.0001) > PTRACERS_advScheme(55)=33,
(PID.TID 0000.0001) > PTRACERS_diffKh(55)=0.E3,
(PID.TID 0000.0001) > PTRACERS_diffKr(55)=1.E-5,
(PID.TID 0000.0001) > PTRACERS_useGMRedi(55)=.FALSE.,
(PID.TID 0000.0001) > PTRACERS_useKPP(55)=.TRUE.,
(PID.TID 0000.0001) > PTRACERS_initialFile(55)='../input/input/loc1_chlorophyll_janprof.bin',
(PID.TID 0000.0001) ># tracer 56 - Chlorophyll Biomass: Plankton(3)
(PID.TID 0000.0001) > PTRACERS_names(56)='BIO_4_003',
(PID.TID 0000.0001) > PTRACERS_units(56)='mg Chl/m^3',
(PID.TID 0000.0001) > PTRACERS_advScheme(56)=33,
(PID.TID 0000.0001) > PTRACERS_diffKh(56)=0.E3,
(PID.TID 0000.0001) > PTRACERS_diffKr(56)=1.E-5,
(PID.TID 0000.0001) > PTRACERS_useGMRedi(56)=.FALSE.,
(PID.TID 0000.0001) > PTRACERS_useKPP(56)=.TRUE.,
(PID.TID 0000.0001) > PTRACERS_initialFile(56)='../input/input/loc1_chlorophyll_janprof.bin',
(PID.TID 0000.0001) ># tracer 57 - Chlorophyll Biomass: Plankton(4)
(PID.TID 0000.0001) > PTRACERS_names(57)='BIO_4_004',
(PID.TID 0000.0001) > PTRACERS_units(57)='mg Chl/m^3',
(PID.TID 0000.0001) > PTRACERS_advScheme(57)=33,
(PID.TID 0000.0001) > PTRACERS_diffKh(57)=0.E3,
(PID.TID 0000.0001) > PTRACERS_diffKr(57)=1.E-5,
(PID.TID 0000.0001) > PTRACERS_useGMRedi(57)=.FALSE.,
(PID.TID 0000.0001) > PTRACERS_useKPP(57)=.TRUE.,
(PID.TID 0000.0001) > PTRACERS_initialFile(57)='../input/input/loc1_chlorophyll_janprof.bin',
(PID.TID 0000.0001) ># tracer 58 - Chlorophyll Biomass: Plankton(5)
(PID.TID 0000.0001) > PTRACERS_names(58)='BIO_4_005',
(PID.TID 0000.0001) > PTRACERS_units(58)='mg Chl/m^3',
(PID.TID 0000.0001) > PTRACERS_advScheme(58)=33,
(PID.TID 0000.0001) > PTRACERS_diffKh(58)=0.E3,
(PID.TID 0000.0001) > PTRACERS_diffKr(58)=1.E-5,
(PID.TID 0000.0001) > PTRACERS_useGMRedi(58)=.FALSE.,
(PID.TID 0000.0001) > PTRACERS_useKPP(58)=.TRUE.,
(PID.TID 0000.0001) > PTRACERS_initialFile(58)='../input/input/loc1_chlorophyll_janprof.bin',
(PID.TID 0000.0001) ># tracer 59 - Chlorophyll Biomass: Plankton(6)
(PID.TID 0000.0001) > PTRACERS_names(59)='BIO_4_006',
(PID.TID 0000.0001) > PTRACERS_units(59)='mg Chl/m^3',
(PID.TID 0000.0001) > PTRACERS_advScheme(59)=33,
(PID.TID 0000.0001) > PTRACERS_diffKh(59)=0.E3,
(PID.TID 0000.0001) > PTRACERS_diffKr(59)=1.E-5,
(PID.TID 0000.0001) > PTRACERS_useGMRedi(59)=.FALSE.,
(PID.TID 0000.0001) > PTRACERS_useKPP(59)=.TRUE.,
(PID.TID 0000.0001) > PTRACERS_initialFile(59)='../input/input/loc1_chlorophyll_janprof.bin',
(PID.TID 0000.0001) ># tracer 60 - Chlorophyll Biomass: Plankton(7)
(PID.TID 0000.0001) > PTRACERS_names(60)='BIO_4_007',
(PID.TID 0000.0001) > PTRACERS_units(60)='mg Chl/m^3',
(PID.TID 0000.0001) > PTRACERS_advScheme(60)=33,
(PID.TID 0000.0001) > PTRACERS_diffKh(60)=0.E3,
(PID.TID 0000.0001) > PTRACERS_diffKr(60)=1.E-5,
(PID.TID 0000.0001) > PTRACERS_useGMRedi(60)=.FALSE.,
(PID.TID 0000.0001) > PTRACERS_useKPP(60)=.TRUE.,
(PID.TID 0000.0001) > PTRACERS_initialFile(60)='../input/input/loc1_chlorophyll_janprof.bin',
(PID.TID 0000.0001) ># tracer 61 - Chlorophyll Biomass: Plankton(8)
(PID.TID 0000.0001) > PTRACERS_names(61)='BIO_4_008',
(PID.TID 0000.0001) > PTRACERS_units(61)='mg Chl/m^3',
(PID.TID 0000.0001) > PTRACERS_advScheme(61)=33,
(PID.TID 0000.0001) > PTRACERS_diffKh(61)=0.E3,
(PID.TID 0000.0001) > PTRACERS_diffKr(61)=1.E-5,
(PID.TID 0000.0001) > PTRACERS_useGMRedi(61)=.FALSE.,
(PID.TID 0000.0001) > PTRACERS_useKPP(61)=.TRUE.,
(PID.TID 0000.0001) > PTRACERS_initialFile(61)='../input/input/loc1_chlorophyll_janprof.bin',
(PID.TID 0000.0001) ># tracer 62 - Chlorophyll Biomass: Plankton(9)
(PID.TID 0000.0001) > PTRACERS_names(62)='BIO_4_009',
(PID.TID 0000.0001) > PTRACERS_units(62)='mg Chl/m^3',
(PID.TID 0000.0001) > PTRACERS_advScheme(62)=33,
(PID.TID 0000.0001) > PTRACERS_diffKh(62)=0.E3,
(PID.TID 0000.0001) > PTRACERS_diffKr(62)=1.E-5,
(PID.TID 0000.0001) > PTRACERS_useGMRedi(62)=.FALSE.,
(PID.TID 0000.0001) > PTRACERS_useKPP(62)=.TRUE.,
(PID.TID 0000.0001) > PTRACERS_initialFile(62)='../input/input/loc1_chlorophyll_janprof.bin',
(PID.TID 0000.0001) ># tracer 63 - Chlorophyll Biomass: Plankton(10)
(PID.TID 0000.0001) > PTRACERS_names(63)='BIO_4_010',
(PID.TID 0000.0001) > PTRACERS_units(63)='mg Chl/m^3',
(PID.TID 0000.0001) > PTRACERS_advScheme(63)=33,
(PID.TID 0000.0001) > PTRACERS_diffKh(63)=0.E3,
(PID.TID 0000.0001) > PTRACERS_diffKr(63)=1.E-5,
(PID.TID 0000.0001) > PTRACERS_useGMRedi(63)=.FALSE.,
(PID.TID 0000.0001) > PTRACERS_useKPP(63)=.TRUE.,
(PID.TID 0000.0001) > PTRACERS_initialFile(63)='../input/input/loc1_chlorophyll_janprof.bin',
(PID.TID 0000.0001) ># tracer 64 - Chlorophyll Biomass: Plankton(11)
(PID.TID 0000.0001) > PTRACERS_names(64)='BIO_4_011',
(PID.TID 0000.0001) > PTRACERS_units(64)='mg Chl/m^3',
(PID.TID 0000.0001) > PTRACERS_advScheme(64)=33,
(PID.TID 0000.0001) > PTRACERS_diffKh(64)=0.E3,
(PID.TID 0000.0001) > PTRACERS_diffKr(64)=1.E-5,
(PID.TID 0000.0001) > PTRACERS_useGMRedi(64)=.FALSE.,
(PID.TID 0000.0001) > PTRACERS_useKPP(64)=.TRUE.,
(PID.TID 0000.0001) > PTRACERS_initialFile(64)='../input/input/loc1_chlorophyll_janprof.bin',
(PID.TID 0000.0001) ># tracer 65 - Chlorophyll Biomass: Plankton(12)
(PID.TID 0000.0001) > PTRACERS_names(65)='BIO_4_012',
(PID.TID 0000.0001) > PTRACERS_units(65)='mg Chl/m^3',
(PID.TID 0000.0001) > PTRACERS_advScheme(65)=33,
(PID.TID 0000.0001) > PTRACERS_diffKh(65)=0.E3,
(PID.TID 0000.0001) > PTRACERS_diffKr(65)=1.E-5,
(PID.TID 0000.0001) > PTRACERS_useGMRedi(65)=.FALSE.,
(PID.TID 0000.0001) > PTRACERS_useKPP(65)=.TRUE.,
(PID.TID 0000.0001) > PTRACERS_initialFile(65)='../input/input/loc1_chlorophyll_janprof.bin',
(PID.TID 0000.0001) ># tracer 66 - Chlorophyll Biomass: Plankton(13)
(PID.TID 0000.0001) > PTRACERS_names(66)='BIO_4_013',
(PID.TID 0000.0001) > PTRACERS_units(66)='mg Chl/m^3',
(PID.TID 0000.0001) > PTRACERS_advScheme(66)=33,
(PID.TID 0000.0001) > PTRACERS_diffKh(66)=0.E3,
(PID.TID 0000.0001) > PTRACERS_diffKr(66)=1.E-5,
(PID.TID 0000.0001) > PTRACERS_useGMRedi(66)=.FALSE.,
(PID.TID 0000.0001) > PTRACERS_useKPP(66)=.TRUE.,
(PID.TID 0000.0001) > PTRACERS_initialFile(66)='../input/input/loc1_chlorophyll_janprof.bin',
(PID.TID 0000.0001) ># tracer 67 - Chlorophyll Biomass: Plankton(14)
(PID.TID 0000.0001) > PTRACERS_names(67)='BIO_4_014',
(PID.TID 0000.0001) > PTRACERS_units(67)='mg Chl/m^3',
(PID.TID 0000.0001) > PTRACERS_advScheme(67)=33,
(PID.TID 0000.0001) > PTRACERS_diffKh(67)=0.E3,
(PID.TID 0000.0001) > PTRACERS_diffKr(67)=1.E-5,
(PID.TID 0000.0001) > PTRACERS_useGMRedi(67)=.FALSE.,
(PID.TID 0000.0001) > PTRACERS_useKPP(67)=.TRUE.,
(PID.TID 0000.0001) > PTRACERS_initialFile(67)='../input/input/loc1_chlorophyll_janprof.bin',
(PID.TID 0000.0001) ># tracer 68 - Chlorophyll Biomass: Plankton(15)
(PID.TID 0000.0001) > PTRACERS_names(68)='BIO_4_015',
(PID.TID 0000.0001) > PTRACERS_units(68)='mg Chl/m^3',
(PID.TID 0000.0001) > PTRACERS_advScheme(68)=33,
(PID.TID 0000.0001) > PTRACERS_diffKh(68)=0.E3,
(PID.TID 0000.0001) > PTRACERS_diffKr(68)=1.E-5,
(PID.TID 0000.0001) > PTRACERS_useGMRedi(68)=.FALSE.,
(PID.TID 0000.0001) > PTRACERS_useKPP(68)=.TRUE.,
(PID.TID 0000.0001) > PTRACERS_initialFile(68)='../input/input/loc1_chlorophyll_janprof.bin',
(PID.TID 0000.0001) ># tracer 69 - Chlorophyll Biomass: Plankton(16)
(PID.TID 0000.0001) > PTRACERS_names(69)='BIO_4_016',
(PID.TID 0000.0001) > PTRACERS_units(69)='mg Chl/m^3',
(PID.TID 0000.0001) > PTRACERS_advScheme(69)=33,
(PID.TID 0000.0001) > PTRACERS_diffKh(69)=0.E3,
(PID.TID 0000.0001) > PTRACERS_diffKr(69)=1.E-5,
(PID.TID 0000.0001) > PTRACERS_useGMRedi(69)=.FALSE.,
(PID.TID 0000.0001) > PTRACERS_useKPP(69)=.TRUE.,
(PID.TID 0000.0001) > PTRACERS_initialFile(69)='../input/input/loc1_chlorophyll_janprof.bin',
(PID.TID 0000.0001) ># tracer 70 - Dissolved Organic Carbon
(PID.TID 0000.0001) > PTRACERS_names(70)='OM_1_1',
(PID.TID 0000.0001) > PTRACERS_units(70)='mmol C/m^3',
(PID.TID 0000.0001) > PTRACERS_advScheme(70)=33,
(PID.TID 0000.0001) > PTRACERS_diffKh(70)=0.E3,
(PID.TID 0000.0001) > PTRACERS_diffKr(70)=1.E-5,
(PID.TID 0000.0001) > PTRACERS_useGMRedi(70)=.FALSE.,
(PID.TID 0000.0001) > PTRACERS_useKPP(70)=.TRUE.,
(PID.TID 0000.0001) > PTRACERS_initialFile(70)='../input/input/loc1_DOC_janprof.bin',
(PID.TID 0000.0001) ># tracer 71 - Particulate Organic Carbon
(PID.TID 0000.0001) > PTRACERS_names(71)='OM_1_2',
(PID.TID 0000.0001) > PTRACERS_units(71)='mmol C/m^3',
(PID.TID 0000.0001) > PTRACERS_advScheme(71)=33,
(PID.TID 0000.0001) > PTRACERS_diffKh(71)=0.E3,
(PID.TID 0000.0001) > PTRACERS_diffKr(71)=1.E-5,
(PID.TID 0000.0001) > PTRACERS_useGMRedi(71)=.FALSE.,
(PID.TID 0000.0001) > PTRACERS_useKPP(71)=.TRUE.,
(PID.TID 0000.0001) > PTRACERS_initialFile(71)='../input/input/loc1_POC_janprof.bin',
(PID.TID 0000.0001) ># tracer 72 - Dissolved Organic Nitrogen
(PID.TID 0000.0001) > PTRACERS_names(72)='OM_2_1',
(PID.TID 0000.0001) > PTRACERS_units(72)='mmol N/m^3',
(PID.TID 0000.0001) > PTRACERS_advScheme(72)=33,
(PID.TID 0000.0001) > PTRACERS_diffKh(72)=0.E3,
(PID.TID 0000.0001) > PTRACERS_diffKr(72)=1.E-5,
(PID.TID 0000.0001) > PTRACERS_useGMRedi(72)=.FALSE.,
(PID.TID 0000.0001) > PTRACERS_useKPP(72)=.TRUE.,
(PID.TID 0000.0001) > PTRACERS_initialFile(72)='../input/input/loc1_DON_run83_janprof.bin',
(PID.TID 0000.0001) ># tracer 73 - Particulate Organic Nitrogen
(PID.TID 0000.0001) > PTRACERS_names(73)='OM_2_2',
(PID.TID 0000.0001) > PTRACERS_units(73)='mmol N/m^3',
(PID.TID 0000.0001) > PTRACERS_advScheme(73)=33,
(PID.TID 0000.0001) > PTRACERS_diffKh(73)=0.E3,
(PID.TID 0000.0001) > PTRACERS_diffKr(73)=1.E-5,
(PID.TID 0000.0001) > PTRACERS_useGMRedi(73)=.FALSE.,
(PID.TID 0000.0001) > PTRACERS_useKPP(73)=.TRUE.,
(PID.TID 0000.0001) > PTRACERS_initialFile(73)='../input/input/loc1_PON_run83_janprof.bin',
(PID.TID 0000.0001) ># tracer 74 - Dissolved Organic Iron
(PID.TID 0000.0001) > PTRACERS_names(74)='OM_3_1',
(PID.TID 0000.0001) > PTRACERS_units(74)='mmol Fe/m^3',
(PID.TID 0000.0001) > PTRACERS_advScheme(74)=33,
(PID.TID 0000.0001) > PTRACERS_diffKh(74)=0.E3,
(PID.TID 0000.0001) > PTRACERS_diffKr(74)=1.E-5,
(PID.TID 0000.0001) > PTRACERS_useGMRedi(74)=.FALSE.,
(PID.TID 0000.0001) > PTRACERS_useKPP(74)=.TRUE.,
(PID.TID 0000.0001) > PTRACERS_initialFile(74)='../input/input/loc1_DOFe_run83_janprof.bin',
(PID.TID 0000.0001) ># tracer 75 - Particulate Organic Iron
(PID.TID 0000.0001) > PTRACERS_names(75)='OM_3_2',
(PID.TID 0000.0001) > PTRACERS_units(75)='mmol Fe/m^3',
(PID.TID 0000.0001) > PTRACERS_advScheme(75)=33,
(PID.TID 0000.0001) > PTRACERS_diffKh(75)=0.E3,
(PID.TID 0000.0001) > PTRACERS_diffKr(75)=1.E-5,
(PID.TID 0000.0001) > PTRACERS_useGMRedi(75)=.FALSE.,
(PID.TID 0000.0001) > PTRACERS_useKPP(75)=.TRUE.,
(PID.TID 0000.0001) > PTRACERS_initialFile(75)='../input/input/loc1_POFe_run83_janprof.bin',
(PID.TID 0000.0001) > /
(PID.TID 0000.0001) 
(PID.TID 0000.0001)  PTRACERS_READPARMS: finished reading data.ptracers
(PID.TID 0000.0001)  GCHEM_READPARMS: opening data.gchem
(PID.TID 0000.0001)  OPEN_COPY_DATA_FILE: opening file data.gchem
(PID.TID 0000.0001) // =======================================================
(PID.TID 0000.0001) // Parameter file "data.gchem"
(PID.TID 0000.0001) // =======================================================
(PID.TID 0000.0001) > &GCHEM_PARM01
(PID.TID 0000.0001) >  useDARWIN=.TRUE.,
(PID.TID 0000.0001) >  nsubtime=3,
(PID.TID 0000.0001) > /
(PID.TID 0000.0001) 
(PID.TID 0000.0001)  GCHEM_READPARMS: finished reading data.gchem
(PID.TID 0000.0001)  DARWIN_READPARMS: opening data.darwin
(PID.TID 0000.0001)  OPEN_COPY_DATA_FILE: opening file data.darwin
(PID.TID 0000.0001) // =======================================================
(PID.TID 0000.0001) // Parameter file "data.darwin"
(PID.TID 0000.0001) // =======================================================
(PID.TID 0000.0001) > &DARWIN_FORCING
(PID.TID 0000.0001) > darwin_ironFile='../input/input/loc1_FeFlux_monsurf.bin',
(PID.TID 0000.0001) > darwin_PARFile='../input/input/loc1_PAR_monsurf.bin',
(PID.TID 0000.0001) > darwin_ForcingPeriod=2592000.,
(PID.TID 0000.0001) > darwin_ForcingCycle=31104000.,
(PID.TID 0000.0001) >#darwin_PO4_fluxFile='../input/input/ann_nphos_flux.bin',
(PID.TID 0000.0001) >#darwin_NO3_fluxFile='../input/input/ann_nnitr_flux.bin',
(PID.TID 0000.0001) >#darwin_Si_fluxFile='../input/input/ann_nsil_flux.bin',
(PID.TID 0000.0001) > darwin_seed=11231,
(PID.TID 0000.0001) > /
(PID.TID 0000.0001) 
(PID.TID 0000.0001)  DARWIN_READPARMS: finished reading data.darwin
(PID.TID 0000.0001) // ===================================
(PID.TID 0000.0001) // darwin parameters
(PID.TID 0000.0001) // ===================================
(PID.TID 0000.0001) darwin_seed = /* seed for random number generator */
(PID.TID 0000.0001)                   11231
(PID.TID 0000.0001)     ;
(PID.TID 0000.0001)  -----------------------------------
(PID.TID 0000.0001)  ===================================
(PID.TID 0000.0001) SET_PARMS: done
(PID.TID 0000.0001) Enter INI_VERTICAL_GRID: setInterFDr=    T ; setCenterDr=    F
(PID.TID 0000.0001) %MON XC_max                       =   3.3550000000000E+02
(PID.TID 0000.0001) %MON XC_min                       =   3.3550000000000E+02
(PID.TID 0000.0001) %MON XC_mean                      =   3.3550000000000E+02
(PID.TID 0000.0001) %MON XC_sd                        =   0.0000000000000E+00
(PID.TID 0000.0001) %MON XG_max                       =   3.3500000000000E+02
(PID.TID 0000.0001) %MON XG_min                       =   3.3500000000000E+02
(PID.TID 0000.0001) %MON XG_mean                      =   3.3500000000000E+02
(PID.TID 0000.0001) %MON XG_sd                        =   0.0000000000000E+00
(PID.TID 0000.0001) %MON DXC_max                      =   1.0603184087720E+05
(PID.TID 0000.0001) %MON DXC_min                      =   1.0603184087720E+05
(PID.TID 0000.0001) %MON DXC_mean                     =   1.0603184087720E+05
(PID.TID 0000.0001) %MON DXC_sd                       =   0.0000000000000E+00
(PID.TID 0000.0001) %MON DXF_max                      =   1.0603184087720E+05
(PID.TID 0000.0001) %MON DXF_min                      =   1.0603184087720E+05
(PID.TID 0000.0001) %MON DXF_mean                     =   1.0603184087720E+05
(PID.TID 0000.0001) %MON DXF_sd                       =   0.0000000000000E+00
(PID.TID 0000.0001) %MON DXG_max                      =   1.0573606049669E+05
(PID.TID 0000.0001) %MON DXG_min                      =   1.0573606049669E+05
(PID.TID 0000.0001) %MON DXG_mean                     =   1.0573606049669E+05
(PID.TID 0000.0001) %MON DXG_sd                       =   0.0000000000000E+00
(PID.TID 0000.0001) %MON DXV_max                      =   1.0573606049669E+05
(PID.TID 0000.0001) %MON DXV_min                      =   1.0573606049669E+05
(PID.TID 0000.0001) %MON DXV_mean                     =   1.0573606049669E+05
(PID.TID 0000.0001) %MON DXV_sd                       =   0.0000000000000E+00
(PID.TID 0000.0001) %MON YC_max                       =  -1.7500000000000E+01
(PID.TID 0000.0001) %MON YC_min                       =  -1.7500000000000E+01
(PID.TID 0000.0001) %MON YC_mean                      =  -1.7500000000000E+01
(PID.TID 0000.0001) %MON YC_sd                        =   0.0000000000000E+00
(PID.TID 0000.0001) %MON YG_max                       =  -1.8000000000000E+01
(PID.TID 0000.0001) %MON YG_min                       =  -1.8000000000000E+01
(PID.TID 0000.0001) %MON YG_mean                      =  -1.8000000000000E+01
(PID.TID 0000.0001) %MON YG_sd                        =   0.0000000000000E+00
(PID.TID 0000.0001) %MON DYC_max                      =   1.1117747335204E+05
(PID.TID 0000.0001) %MON DYC_min                      =   1.1117747335204E+05
(PID.TID 0000.0001) %MON DYC_mean                     =   1.1117747335204E+05
(PID.TID 0000.0001) %MON DYC_sd                       =   0.0000000000000E+00
(PID.TID 0000.0001) %MON DYF_max                      =   1.1117747335204E+05
(PID.TID 0000.0001) %MON DYF_min                      =   1.1117747335204E+05
(PID.TID 0000.0001) %MON DYF_mean                     =   1.1117747335204E+05
(PID.TID 0000.0001) %MON DYF_sd                       =   0.0000000000000E+00
(PID.TID 0000.0001) %MON DYG_max                      =   1.1117747335204E+05
(PID.TID 0000.0001) %MON DYG_min                      =   1.1117747335204E+05
(PID.TID 0000.0001) %MON DYG_mean                     =   1.1117747335204E+05
(PID.TID 0000.0001) %MON DYG_sd                       =   0.0000000000000E+00
(PID.TID 0000.0001) %MON DYU_max                      =   1.1117747335204E+05
(PID.TID 0000.0001) %MON DYU_min                      =   1.1117747335204E+05
(PID.TID 0000.0001) %MON DYU_mean                     =   1.1117747335204E+05
(PID.TID 0000.0001) %MON DYU_sd                       =   0.0000000000000E+00
(PID.TID 0000.0001) %MON RA_max                       =   1.1788202541770E+10
(PID.TID 0000.0001) %MON RA_min                       =   1.1788202541770E+10
(PID.TID 0000.0001) %MON RA_mean                      =   1.1788202541770E+10
(PID.TID 0000.0001) %MON RA_sd                        =   0.0000000000000E+00
(PID.TID 0000.0001) %MON RAW_max                      =   1.1788202541770E+10
(PID.TID 0000.0001) %MON RAW_min                      =   1.1788202541770E+10
(PID.TID 0000.0001) %MON RAW_mean                     =   1.1788202541770E+10
(PID.TID 0000.0001) %MON RAW_sd                       =   0.0000000000000E+00
(PID.TID 0000.0001) %MON RAS_max                      =   1.1755318843774E+10
(PID.TID 0000.0001) %MON RAS_min                      =   1.1755318843774E+10
(PID.TID 0000.0001) %MON RAS_mean                     =   1.1755318843774E+10
(PID.TID 0000.0001) %MON RAS_sd                       =   0.0000000000000E+00
(PID.TID 0000.0001) %MON RAZ_max                      =   1.1755318843774E+10
(PID.TID 0000.0001) %MON RAZ_min                      =   1.1755318843774E+10
(PID.TID 0000.0001) %MON RAZ_mean                     =   1.1755318843774E+10
(PID.TID 0000.0001) %MON RAZ_sd                       =   0.0000000000000E+00
(PID.TID 0000.0001) %MON AngleCS_max                  =   1.0000000000000E+00
(PID.TID 0000.0001) %MON AngleCS_min                  =   1.0000000000000E+00
(PID.TID 0000.0001) %MON AngleCS_mean                 =   1.0000000000000E+00
(PID.TID 0000.0001) %MON AngleCS_sd                   =   0.0000000000000E+00
(PID.TID 0000.0001) %MON AngleSN_max                  =   0.0000000000000E+00
(PID.TID 0000.0001) %MON AngleSN_min                  =   0.0000000000000E+00
(PID.TID 0000.0001) %MON AngleSN_mean                 =   0.0000000000000E+00
(PID.TID 0000.0001) %MON AngleSN_sd                   =   0.0000000000000E+00
(PID.TID 0000.0001)  MDS_READ_FIELD: opening global file: ../input/input/bathyneg.bin
(PID.TID 0000.0001) // =======================================================
(PID.TID 0000.0001) // Field Model R_low (ini_masks_etc)
(PID.TID 0000.0001) // CMIN =         -3.495000000000000E+03
(PID.TID 0000.0001) // CMAX =         -3.495000000000000E+03
(PID.TID 0000.0001) // CINT =          0.000000000000000E+00
(PID.TID 0000.0001) // SYMBOLS (CMIN->CMAX): -abcdefghijklmnopqrstuvwxyz+
(PID.TID 0000.0001) //                  0.0: .
(PID.TID 0000.0001) // RANGE I (Lo:Hi:Step):(    -1:     3:     1)
(PID.TID 0000.0001) // RANGE J (Lo:Hi:Step):(     3:    -1:    -1)
(PID.TID 0000.0001) // RANGE K (Lo:Hi:Step):(   1:   1:   1)
(PID.TID 0000.0001) // =======================================================
(PID.TID 0000.0001) // =======================================================
(PID.TID 0000.0001) // END OF FIELD                                          =
(PID.TID 0000.0001) // =======================================================
(PID.TID 0000.0001) 
(PID.TID 0000.0001) // =======================================================
(PID.TID 0000.0001) // Field Model Ro_surf (ini_masks_etc)
(PID.TID 0000.0001) // CMIN =          1.000000000000000E+32
(PID.TID 0000.0001) // CMAX =         -1.000000000000000E+32
(PID.TID 0000.0001) // CINT =          0.000000000000000E+00
(PID.TID 0000.0001) // SYMBOLS (CMIN->CMAX): -abcdefghijklmnopqrstuvwxyz+
(PID.TID 0000.0001) //                  0.0: .
(PID.TID 0000.0001) // RANGE I (Lo:Hi:Step):(    -1:     3:     1)
(PID.TID 0000.0001) // RANGE J (Lo:Hi:Step):(     3:    -1:    -1)
(PID.TID 0000.0001) // RANGE K (Lo:Hi:Step):(   1:   1:   1)
(PID.TID 0000.0001) // =======================================================
(PID.TID 0000.0001) // =======================================================
(PID.TID 0000.0001) // END OF FIELD                                          =
(PID.TID 0000.0001) // =======================================================
(PID.TID 0000.0001) 
(PID.TID 0000.0001) // =======================================================
(PID.TID 0000.0001) // Field hFacC at iteration          0
(PID.TID 0000.0001) // CMIN =          1.000000000000000E+00
(PID.TID 0000.0001) // CMAX =          1.000000000000000E+00
(PID.TID 0000.0001) // CINT =          0.000000000000000E+00
(PID.TID 0000.0001) // SYMBOLS (CMIN->CMAX): -abcdefghijklmnopqrstuvwxyz+
(PID.TID 0000.0001) //                  0.0: .
(PID.TID 0000.0001) // RANGE I (Lo:Hi:Step):(    -1:     3:     1)
(PID.TID 0000.0001) // RANGE J (Lo:Hi:Step):(     3:    -1:    -1)
(PID.TID 0000.0001) // RANGE K (Lo:Hi:Step):(   1:   1:   1)
(PID.TID 0000.0001) // =======================================================
(PID.TID 0000.0001) // =======================================================
(PID.TID 0000.0001) // END OF FIELD                                          =
(PID.TID 0000.0001) // =======================================================
(PID.TID 0000.0001) 
(PID.TID 0000.0001) // =======================================================
(PID.TID 0000.0001) // Field hFacW at iteration          0
(PID.TID 0000.0001) // CMIN =          1.000000000000000E+00
(PID.TID 0000.0001) // CMAX =          1.000000000000000E+00
(PID.TID 0000.0001) // CINT =          0.000000000000000E+00
(PID.TID 0000.0001) // SYMBOLS (CMIN->CMAX): -abcdefghijklmnopqrstuvwxyz+
(PID.TID 0000.0001) //                  0.0: .
(PID.TID 0000.0001) // RANGE I (Lo:Hi:Step):(    -1:     3:     1)
(PID.TID 0000.0001) // RANGE J (Lo:Hi:Step):(     3:    -1:    -1)
(PID.TID 0000.0001) // RANGE K (Lo:Hi:Step):(   1:   1:   1)
(PID.TID 0000.0001) // =======================================================
(PID.TID 0000.0001) // =======================================================
(PID.TID 0000.0001) // END OF FIELD                                          =
(PID.TID 0000.0001) // =======================================================
(PID.TID 0000.0001) 
(PID.TID 0000.0001) // =======================================================
(PID.TID 0000.0001) // Field hFacS at iteration          0
(PID.TID 0000.0001) // CMIN =          1.000000000000000E+00
(PID.TID 0000.0001) // CMAX =          1.000000000000000E+00
(PID.TID 0000.0001) // CINT =          0.000000000000000E+00
(PID.TID 0000.0001) // SYMBOLS (CMIN->CMAX): -abcdefghijklmnopqrstuvwxyz+
(PID.TID 0000.0001) //                  0.0: .
(PID.TID 0000.0001) // RANGE I (Lo:Hi:Step):(    -1:     3:     1)
(PID.TID 0000.0001) // RANGE J (Lo:Hi:Step):(     3:    -1:    -1)
(PID.TID 0000.0001) // RANGE K (Lo:Hi:Step):(   1:   1:   1)
(PID.TID 0000.0001) // =======================================================
(PID.TID 0000.0001) // =======================================================
(PID.TID 0000.0001) // END OF FIELD                                          =
(PID.TID 0000.0001) // =======================================================
(PID.TID 0000.0001) 
(PID.TID 0000.0001) GAD_INIT_FIXED: GAD_OlMinSize=  2  0  1
(PID.TID 0000.0001) 
(PID.TID 0000.0001) // ===================================
(PID.TID 0000.0001) // GAD parameters :
(PID.TID 0000.0001) // ===================================
(PID.TID 0000.0001) tempAdvScheme =   /* Temp. Horiz.Advection scheme selector */
(PID.TID 0000.0001)                       3
(PID.TID 0000.0001)     ;
(PID.TID 0000.0001) tempVertAdvScheme =   /* Temp. Vert. Advection scheme selector */
(PID.TID 0000.0001)                       3
(PID.TID 0000.0001)     ;
(PID.TID 0000.0001) tempMultiDimAdvec =   /* use Muti-Dim Advec method for Temp */
(PID.TID 0000.0001)                   F
(PID.TID 0000.0001)     ;
(PID.TID 0000.0001) tempSOM_Advection = /* use 2nd Order Moment Advection for Temp */
(PID.TID 0000.0001)                   F
(PID.TID 0000.0001)     ;
(PID.TID 0000.0001) AdamsBashforthGt = /* apply Adams-Bashforth extrapolation on Gt */
(PID.TID 0000.0001)                   T
(PID.TID 0000.0001)     ;
(PID.TID 0000.0001) AdamsBashforth_T = /* apply Adams-Bashforth extrapolation on Temp */
(PID.TID 0000.0001)                   F
(PID.TID 0000.0001)     ;
(PID.TID 0000.0001) saltAdvScheme =   /* Salt. Horiz.advection scheme selector */
(PID.TID 0000.0001)                       3
(PID.TID 0000.0001)     ;
(PID.TID 0000.0001) saltVertAdvScheme =   /* Salt. Vert. Advection scheme selector */
(PID.TID 0000.0001)                       3
(PID.TID 0000.0001)     ;
(PID.TID 0000.0001) saltMultiDimAdvec =   /* use Muti-Dim Advec method for Salt */
(PID.TID 0000.0001)                   F
(PID.TID 0000.0001)     ;
(PID.TID 0000.0001) saltSOM_Advection = /* use 2nd Order Moment Advection for Salt */
(PID.TID 0000.0001)                   F
(PID.TID 0000.0001)     ;
(PID.TID 0000.0001) AdamsBashforthGs = /* apply Adams-Bashforth extrapolation on Gs */
(PID.TID 0000.0001)                   F
(PID.TID 0000.0001)     ;
(PID.TID 0000.0001) AdamsBashforth_S = /* apply Adams-Bashforth extrapolation on Salt */
(PID.TID 0000.0001)                   F
(PID.TID 0000.0001)     ;
(PID.TID 0000.0001) // ===================================
(PID.TID 0000.0001) // =======================================================
(PID.TID 0000.0001) // Quota loading parameters
(PID.TID 0000.0001) // =======================================================
(PID.TID 0000.0001) %MON fCori_max                    =  -4.3855676645210E-05
(PID.TID 0000.0001) %MON fCori_min                    =  -4.3855676645210E-05
(PID.TID 0000.0001) %MON fCori_mean                   =  -4.3855676645210E-05
(PID.TID 0000.0001) %MON fCori_sd                     =   0.0000000000000E+00
(PID.TID 0000.0001) %MON fCoriG_max                   =  -4.5067801836625E-05
(PID.TID 0000.0001) %MON fCoriG_min                   =  -4.5067801836625E-05
(PID.TID 0000.0001) %MON fCoriG_mean                  =  -4.5067801836625E-05
(PID.TID 0000.0001) %MON fCoriG_sd                    =   0.0000000000000E+00
(PID.TID 0000.0001) %MON fCoriCos_max                 =   1.3909243610207E-04
(PID.TID 0000.0001) %MON fCoriCos_min                 =   1.3909243610207E-04
(PID.TID 0000.0001) %MON fCoriCos_mean                =   1.3909243610207E-04
(PID.TID 0000.0001) %MON fCoriCos_sd                  =   0.0000000000000E+00
(PID.TID 0000.0001) INI_CG2D: CG2D normalisation factor =  2.7288038648017932E-04
(PID.TID 0000.0001) 
(PID.TID 0000.0001) // =======================================================
(PID.TID 0000.0001) // Model configuration
(PID.TID 0000.0001) // =======================================================
(PID.TID 0000.0001) //
(PID.TID 0000.0001) // "Physical" paramters ( PARM01 in namelist )
(PID.TID 0000.0001) //
(PID.TID 0000.0001) buoyancyRelation = /* Type of relation to get Buoyancy */
(PID.TID 0000.0001)               'OCEANIC'
(PID.TID 0000.0001)     ;
(PID.TID 0000.0001) fluidIsAir   =  /* fluid major constituent is Air */
(PID.TID 0000.0001)                   F
(PID.TID 0000.0001)     ;
(PID.TID 0000.0001) fluidIsWater =  /* fluid major constituent is Water */
(PID.TID 0000.0001)                   T
(PID.TID 0000.0001)     ;
(PID.TID 0000.0001) usingPCoords =  /* use p (or p*) vertical coordinate */
(PID.TID 0000.0001)                   F
(PID.TID 0000.0001)     ;
(PID.TID 0000.0001) usingZCoords =  /* use z (or z*) vertical coordinate */
(PID.TID 0000.0001)                   T
(PID.TID 0000.0001)     ;
(PID.TID 0000.0001) tRef =   /* Reference temperature profile ( oC or K ) */
(PID.TID 0000.0001)                 2.650000000000000E+01,      /* K =  1 */
(PID.TID 0000.0001)                 2.610000000000000E+01,      /* K =  2 */
(PID.TID 0000.0001)                 2.600000000000000E+01,      /* K =  3 */
(PID.TID 0000.0001)                 2.550000000000000E+01,      /* K =  4 */
(PID.TID 0000.0001)                 2.540000000000000E+01,      /* K =  5 */
(PID.TID 0000.0001)                 2.490000000000000E+01,      /* K =  6 */
(PID.TID 0000.0001)                 2.450000000000000E+01,      /* K =  7 */
(PID.TID 0000.0001)                 2.400000000000000E+01,      /* K =  8 */
(PID.TID 0000.0001)                 2.370000000000000E+01,      /* K =  9 */
(PID.TID 0000.0001)                 2.330000000000000E+01,      /* K = 10 */
(PID.TID 0000.0001)                 2.310000000000000E+01,      /* K = 11 */
(PID.TID 0000.0001)                 2.280000000000000E+01,      /* K = 12 */
(PID.TID 0000.0001)                 2.250000000000000E+01,      /* K = 13 */
(PID.TID 0000.0001)                 2.210000000000000E+01,      /* K = 14 */
(PID.TID 0000.0001)                 2.160000000000000E+01,      /* K = 15 */
(PID.TID 0000.0001)                 2.060000000000000E+01,      /* K = 16 */
(PID.TID 0000.0001)                 1.950000000000000E+01,      /* K = 17 */
(PID.TID 0000.0001)                 1.840000000000000E+01,      /* K = 18 */
(PID.TID 0000.0001)                 1.730000000000000E+01,      /* K = 19 */
(PID.TID 0000.0001)                 1.660000000000000E+01,      /* K = 20 */
(PID.TID 0000.0001)                 1.550000000000000E+01,      /* K = 21 */
(PID.TID 0000.0001)                 1.460000000000000E+01,      /* K = 22 */
(PID.TID 0000.0001)                 1.380000000000000E+01,      /* K = 23 */
(PID.TID 0000.0001)                 1.310000000000000E+01,      /* K = 24 */
(PID.TID 0000.0001)                 1.160000000000000E+01,      /* K = 25 */
(PID.TID 0000.0001)                 1.010000000000000E+01,      /* K = 26 */
(PID.TID 0000.0001)                 7.700000000000000E+00,      /* K = 27 */
(PID.TID 0000.0001)                 5.300000000000000E+00,      /* K = 28 */
(PID.TID 0000.0001)                 4.100000000000000E+00,      /* K = 29 */
(PID.TID 0000.0001)     2 @  3.700000000000000E+00,             /* K = 30: 31 */
(PID.TID 0000.0001)                 3.400000000000000E+00,      /* K = 32 */
(PID.TID 0000.0001)                 3.000000000000000E+00,      /* K = 33 */
(PID.TID 0000.0001)                 2.800000000000000E+00,      /* K = 34 */
(PID.TID 0000.0001)                 2.600000000000000E+00       /* K = 35 */
(PID.TID 0000.0001)     ;
(PID.TID 0000.0001) sRef =   /* Reference salinity profile ( psu ) */
(PID.TID 0000.0001)    35 @  3.500000000000000E+01              /* K =  1: 35 */
(PID.TID 0000.0001)     ;
(PID.TID 0000.0001) viscAh  =   /* Lateral eddy viscosity ( m^2/s ) */
(PID.TID 0000.0001)                 0.000000000000000E+00
(PID.TID 0000.0001)     ;
(PID.TID 0000.0001) viscAhMax = /* Maximum lateral eddy viscosity ( m^2/s ) */
(PID.TID 0000.0001)                 1.000000000000000E+21
(PID.TID 0000.0001)     ;
(PID.TID 0000.0001) viscAhGrid = /* Grid dependent lateral eddy viscosity ( non-dim. ) */
(PID.TID 0000.0001)                 0.000000000000000E+00
(PID.TID 0000.0001)     ;
(PID.TID 0000.0001) useFullLeith = /* Use Full Form of Leith Viscosity on/off flag*/
(PID.TID 0000.0001)                   F
(PID.TID 0000.0001)     ;
(PID.TID 0000.0001) useStrainTensionVisc= /* Use StrainTension Form of Viscous Operator flag*/
(PID.TID 0000.0001)                   F
(PID.TID 0000.0001)     ;
(PID.TID 0000.0001) useAreaViscLength = /* Use area for visc length instead of geom. mean*/
(PID.TID 0000.0001)                   F
(PID.TID 0000.0001)     ;
(PID.TID 0000.0001) viscC2leith = /* Leith harmonic visc. factor (on grad(vort),non-dim.) */
(PID.TID 0000.0001)                 0.000000000000000E+00
(PID.TID 0000.0001)     ;
(PID.TID 0000.0001) viscC2leithD = /* Leith harmonic viscosity factor (on grad(div),non-dim.)*/
(PID.TID 0000.0001)                 0.000000000000000E+00
(PID.TID 0000.0001)     ;
(PID.TID 0000.0001) viscC2smag = /* Smagorinsky harmonic viscosity factor (non-dim.) */
(PID.TID 0000.0001)                 0.000000000000000E+00
(PID.TID 0000.0001)     ;
(PID.TID 0000.0001) viscA4  =   /* Lateral biharmonic viscosity ( m^4/s ) */
(PID.TID 0000.0001)                 0.000000000000000E+00
(PID.TID 0000.0001)     ;
(PID.TID 0000.0001) viscA4Max = /* Maximum biharmonic viscosity ( m^2/s ) */
(PID.TID 0000.0001)                 1.000000000000000E+21
(PID.TID 0000.0001)     ;
(PID.TID 0000.0001) viscA4Grid = /* Grid dependent biharmonic viscosity ( non-dim. ) */
(PID.TID 0000.0001)                 0.000000000000000E+00
(PID.TID 0000.0001)     ;
(PID.TID 0000.0001) viscC4leith = /* Leith biharm viscosity factor (on grad(vort), non-dim.)*/
(PID.TID 0000.0001)                 0.000000000000000E+00
(PID.TID 0000.0001)     ;
(PID.TID 0000.0001) viscC4leithD = /* Leith biharm viscosity factor (on grad(div), non-dim.) */
(PID.TID 0000.0001)                 0.000000000000000E+00
(PID.TID 0000.0001)     ;
(PID.TID 0000.0001) viscC4Smag = /* Smagorinsky biharm viscosity factor (non-dim) */
(PID.TID 0000.0001)                 0.000000000000000E+00
(PID.TID 0000.0001)     ;
(PID.TID 0000.0001) no_slip_sides =  /* Viscous BCs: No-slip sides */
(PID.TID 0000.0001)                   F
(PID.TID 0000.0001)     ;
(PID.TID 0000.0001) sideDragFactor = /* side-drag scaling factor (non-dim) */
(PID.TID 0000.0001)                 2.000000000000000E+00
(PID.TID 0000.0001)     ;
(PID.TID 0000.0001) viscArNr = /* vertical profile of vertical viscosity ( m^2/s )*/
(PID.TID 0000.0001)    35 @  0.000000000000000E+00              /* K =  1: 35 */
(PID.TID 0000.0001)     ;
(PID.TID 0000.0001) no_slip_bottom =  /* Viscous BCs: No-slip bottom */
(PID.TID 0000.0001)                   T
(PID.TID 0000.0001)     ;
(PID.TID 0000.0001) bottomDragLinear = /* linear bottom-drag coefficient ( m/s ) */
(PID.TID 0000.0001)                 0.000000000000000E+00
(PID.TID 0000.0001)     ;
(PID.TID 0000.0001) bottomDragQuadratic = /* quadratic bottom-drag coefficient (-) */
(PID.TID 0000.0001)                 0.000000000000000E+00
(PID.TID 0000.0001)     ;
(PID.TID 0000.0001) diffKhT =   /* Laplacian diffusion of heat laterally ( m^2/s ) */
(PID.TID 0000.0001)                 1.000000000000000E+02
(PID.TID 0000.0001)     ;
(PID.TID 0000.0001) diffK4T =   /* Biharmonic diffusion of heat laterally ( m^4/s ) */
(PID.TID 0000.0001)                 0.000000000000000E+00
(PID.TID 0000.0001)     ;
(PID.TID 0000.0001) diffKhS =   /* Laplacian diffusion of salt laterally ( m^2/s ) */
(PID.TID 0000.0001)                 0.000000000000000E+00
(PID.TID 0000.0001)     ;
(PID.TID 0000.0001) diffK4S =   /* Biharmonic diffusion of salt laterally ( m^4/s ) */
(PID.TID 0000.0001)                 0.000000000000000E+00
(PID.TID 0000.0001)     ;
(PID.TID 0000.0001) diffKrNrT = /* vertical profile of vertical diffusion of Temp ( m^2/s )*/
(PID.TID 0000.0001)    35 @  1.000000000000000E-04              /* K =  1: 35 */
(PID.TID 0000.0001)     ;
(PID.TID 0000.0001) diffKrNrS = /* vertical profile of vertical diffusion of Salt ( m^2/s )*/
(PID.TID 0000.0001)    35 @  0.000000000000000E+00              /* K =  1: 35 */
(PID.TID 0000.0001)     ;
(PID.TID 0000.0001) diffKrBL79surf = /* Surface diffusion for Bryan and Lewis 79 ( m^2/s ) */
(PID.TID 0000.0001)                 0.000000000000000E+00
(PID.TID 0000.0001)     ;
(PID.TID 0000.0001) diffKrBL79deep = /* Deep diffusion for Bryan and Lewis 1979 ( m^2/s ) */
(PID.TID 0000.0001)                 0.000000000000000E+00
(PID.TID 0000.0001)     ;
(PID.TID 0000.0001) diffKrBL79scl = /* Depth scale for Bryan and Lewis 1979 ( m ) */
(PID.TID 0000.0001)                 2.000000000000000E+02
(PID.TID 0000.0001)     ;
(PID.TID 0000.0001) diffKrBL79Ho = /* Turning depth for Bryan and Lewis 1979 ( m ) */
(PID.TID 0000.0001)                -2.000000000000000E+03
(PID.TID 0000.0001)     ;
(PID.TID 0000.0001) ivdc_kappa = /* Implicit Vertical Diffusivity for Convection ( m^2/s) */
(PID.TID 0000.0001)                 0.000000000000000E+00
(PID.TID 0000.0001)     ;
(PID.TID 0000.0001) hMixCriteria=  /* Criteria for mixed-layer diagnostic */
(PID.TID 0000.0001)                -8.000000000000000E-01
(PID.TID 0000.0001)     ;
(PID.TID 0000.0001) dRhoSmall =  /* Parameter for mixed-layer diagnostic */
(PID.TID 0000.0001)                 1.000000000000000E-06
(PID.TID 0000.0001)     ;
(PID.TID 0000.0001) hMixSmooth=  /* Smoothing parameter for mixed-layer diagnostic */
(PID.TID 0000.0001)                 0.000000000000000E+00
(PID.TID 0000.0001)     ;
(PID.TID 0000.0001) eosType =  /* Type of Equation of State */
(PID.TID 0000.0001)               'JMD95Z'
(PID.TID 0000.0001)     ;
(PID.TID 0000.0001) celsius2K = /* 0 degree Celsius converted to Kelvin ( K ) */
(PID.TID 0000.0001)                 2.731500000000000E+02
(PID.TID 0000.0001)     ;
(PID.TID 0000.0001) rhoConst  = /* Reference density (Boussinesq)  ( kg/m^3 ) */
(PID.TID 0000.0001)                 9.998000000000000E+02
(PID.TID 0000.0001)     ;
(PID.TID 0000.0001) rhoFacC = /* normalized Reference density @ cell-Center (-) */
(PID.TID 0000.0001)    35 @  1.000000000000000E+00              /* K =  1: 35 */
(PID.TID 0000.0001)     ;
(PID.TID 0000.0001) rhoFacF = /* normalized Reference density @ W-Interface (-) */
(PID.TID 0000.0001)    36 @  1.000000000000000E+00              /* K =  1: 36 */
(PID.TID 0000.0001)     ;
(PID.TID 0000.0001) rhoConstFresh = /* Fresh-water reference density ( kg/m^3 ) */
(PID.TID 0000.0001)                 9.998000000000000E+02
(PID.TID 0000.0001)     ;
(PID.TID 0000.0001) gravity =   /* Gravitational acceleration ( m/s^2 ) */
(PID.TID 0000.0001)                 9.810000000000000E+00
(PID.TID 0000.0001)     ;
(PID.TID 0000.0001) gBaro =   /* Barotropic gravity ( m/s^2 ) */
(PID.TID 0000.0001)                 9.810000000000000E+00
(PID.TID 0000.0001)     ;
(PID.TID 0000.0001) rotationPeriod =   /* Rotation Period ( s ) */
(PID.TID 0000.0001)                 8.616400000000000E+04
(PID.TID 0000.0001)     ;
(PID.TID 0000.0001) omega =   /* Angular velocity ( rad/s ) */
(PID.TID 0000.0001)                 7.292123516990375E-05
(PID.TID 0000.0001)     ;
(PID.TID 0000.0001) f0 =   /* Reference coriolis parameter ( 1/s ) */
(PID.TID 0000.0001)                 1.000000000000000E-04
(PID.TID 0000.0001)     ;
(PID.TID 0000.0001) beta =   /* Beta ( 1/(m.s) ) */
(PID.TID 0000.0001)                 9.999999999999999E-12
(PID.TID 0000.0001)     ;
(PID.TID 0000.0001) fPrime =   /* Second coriolis parameter ( 1/s ) */
(PID.TID 0000.0001)                 0.000000000000000E+00
(PID.TID 0000.0001)     ;
(PID.TID 0000.0001) rigidLid =   /* Rigid lid on/off flag */
(PID.TID 0000.0001)                   T
(PID.TID 0000.0001)     ;
(PID.TID 0000.0001) implicitFreeSurface =   /* Implicit free surface on/off flag */
(PID.TID 0000.0001)                   F
(PID.TID 0000.0001)     ;
(PID.TID 0000.0001) freeSurfFac =   /* Implicit free surface factor */
(PID.TID 0000.0001)                 0.000000000000000E+00
(PID.TID 0000.0001)     ;
(PID.TID 0000.0001) implicSurfPress =  /* Surface Pressure implicit factor (0-1)*/
(PID.TID 0000.0001)                 1.000000000000000E+00
(PID.TID 0000.0001)     ;
(PID.TID 0000.0001) implicDiv2Dflow =  /* Barot. Flow Div. implicit factor (0-1)*/
(PID.TID 0000.0001)                 1.000000000000000E+00
(PID.TID 0000.0001)     ;
(PID.TID 0000.0001) uniformLin_PhiSurf = /* use uniform Bo_surf on/off flag*/
(PID.TID 0000.0001)                   T
(PID.TID 0000.0001)     ;
(PID.TID 0000.0001) uniformFreeSurfLev = /* free-surface level-index is uniform */
(PID.TID 0000.0001)                   T
(PID.TID 0000.0001)     ;
(PID.TID 0000.0001) hFacMin =   /* minimum partial cell factor (hFac) */
(PID.TID 0000.0001)                 1.000000000000000E+00
(PID.TID 0000.0001)     ;
(PID.TID 0000.0001) hFacMinDr = /* minimum partial cell thickness ( m) */
(PID.TID 0000.0001)                 1.000000000000000E+00
(PID.TID 0000.0001)     ;
(PID.TID 0000.0001) exactConserv =  /* Exact Volume Conservation on/off flag*/
(PID.TID 0000.0001)                   F
(PID.TID 0000.0001)     ;
(PID.TID 0000.0001) linFSConserveTr = /* Tracer correction for Lin Free Surface on/off flag*/
(PID.TID 0000.0001)                   F
(PID.TID 0000.0001)     ;
(PID.TID 0000.0001) nonlinFreeSurf = /* Non-linear Free Surf. options (-1,0,1,2,3)*/
(PID.TID 0000.0001)                       0
(PID.TID 0000.0001)      -1,0= Off ; 1,2,3= On, 2=+rescale gU,gV, 3=+update cg2d solv.
(PID.TID 0000.0001)     ;
(PID.TID 0000.0001) hFacInf =   /* lower threshold for hFac (nonlinFreeSurf only)*/
(PID.TID 0000.0001)                 2.000000000000000E-01
(PID.TID 0000.0001)     ;
(PID.TID 0000.0001) hFacSup =   /* upper threshold for hFac (nonlinFreeSurf only)*/
(PID.TID 0000.0001)                 2.000000000000000E+00
(PID.TID 0000.0001)     ;
(PID.TID 0000.0001) select_rStar = /* r* Vertical coord. options (=0 r coord.; >0 uses r*)*/
(PID.TID 0000.0001)                       0
(PID.TID 0000.0001)     ;
(PID.TID 0000.0001) useRealFreshWaterFlux = /* Real Fresh Water Flux on/off flag*/
(PID.TID 0000.0001)                   F
(PID.TID 0000.0001)     ;
(PID.TID 0000.0001) temp_EvPrRn = /* Temp. of Evap/Prec/R (UNSET=use local T)(oC)*/
(PID.TID 0000.0001)                 1.234567000000000E+05
(PID.TID 0000.0001)     ;
(PID.TID 0000.0001) salt_EvPrRn = /* Salin. of Evap/Prec/R (UNSET=use local S)(psu)*/
(PID.TID 0000.0001)                 0.000000000000000E+00
(PID.TID 0000.0001)     ;
(PID.TID 0000.0001) selectAddFluid = /* option for mass source/sink of fluid (=0: off) */
(PID.TID 0000.0001)                       0
(PID.TID 0000.0001)     ;
(PID.TID 0000.0001) temp_addMass = /* Temp. of addMass array (UNSET=use local T)(oC)*/
(PID.TID 0000.0001)                 1.234567000000000E+05
(PID.TID 0000.0001)     ;
(PID.TID 0000.0001) salt_addMass = /* Salin. of addMass array (UNSET=use local S)(psu)*/
(PID.TID 0000.0001)                 0.000000000000000E+00
(PID.TID 0000.0001)     ;
(PID.TID 0000.0001) convertFW2Salt = /* convert F.W. Flux to Salt Flux (-1=use local S)(psu)*/
(PID.TID 0000.0001)                 3.500000000000000E+01
(PID.TID 0000.0001)     ;
(PID.TID 0000.0001) use3Dsolver = /* use 3-D pressure solver on/off flag */
(PID.TID 0000.0001)                   F
(PID.TID 0000.0001)     ;
(PID.TID 0000.0001) nonHydrostatic =  /* Non-Hydrostatic on/off flag */
(PID.TID 0000.0001)                   F
(PID.TID 0000.0001)     ;
(PID.TID 0000.0001) nh_Am2 = /* Non-Hydrostatic terms scaling factor */
(PID.TID 0000.0001)                 1.000000000000000E+00
(PID.TID 0000.0001)     ;
(PID.TID 0000.0001) implicitNHPress = /* Non-Hyd Pressure implicit factor (0-1)*/
(PID.TID 0000.0001)                 1.000000000000000E+00
(PID.TID 0000.0001)     ;
(PID.TID 0000.0001) selectNHfreeSurf = /* Non-Hyd (free-)Surface option */
(PID.TID 0000.0001)                       0
(PID.TID 0000.0001)     ;
(PID.TID 0000.0001) quasiHydrostatic = /* Quasi-Hydrostatic on/off flag */
(PID.TID 0000.0001)                   F
(PID.TID 0000.0001)     ;
(PID.TID 0000.0001) calc_wVelocity = /* vertical velocity calculation on/off flag */
(PID.TID 0000.0001)                   F
(PID.TID 0000.0001)     ;
(PID.TID 0000.0001) momStepping =  /* Momentum equation on/off flag */
(PID.TID 0000.0001)                   F
(PID.TID 0000.0001)     ;
(PID.TID 0000.0001) vectorInvariantMomentum= /* Vector-Invariant Momentum on/off */
(PID.TID 0000.0001)                   F
(PID.TID 0000.0001)     ;
(PID.TID 0000.0001) momAdvection =  /* Momentum advection on/off flag */
(PID.TID 0000.0001)                   F
(PID.TID 0000.0001)     ;
(PID.TID 0000.0001) momViscosity =  /* Momentum viscosity on/off flag */
(PID.TID 0000.0001)                   F
(PID.TID 0000.0001)     ;
(PID.TID 0000.0001) momImplVertAdv= /* Momentum implicit vert. advection on/off*/
(PID.TID 0000.0001)                   F
(PID.TID 0000.0001)     ;
(PID.TID 0000.0001) implicitViscosity = /* Implicit viscosity on/off flag */
(PID.TID 0000.0001)                   F
(PID.TID 0000.0001)     ;
(PID.TID 0000.0001) metricTerms =  /* metric-Terms on/off flag */
(PID.TID 0000.0001)                   T
(PID.TID 0000.0001)     ;
(PID.TID 0000.0001) useNHMTerms = /* Non-Hydrostatic Metric-Terms on/off */
(PID.TID 0000.0001)                   F
(PID.TID 0000.0001)     ;
(PID.TID 0000.0001) selectCoriMap = /* Coriolis Map options (0,1,2,3)*/
(PID.TID 0000.0001)                       2
(PID.TID 0000.0001)     0= f-Plane ; 1= Beta-Plane ; 2= Spherical ; 3= read from file
(PID.TID 0000.0001)     ;
(PID.TID 0000.0001) use3dCoriolis = /* 3-D Coriolis on/off flag */
(PID.TID 0000.0001)                   F
(PID.TID 0000.0001)     ;
(PID.TID 0000.0001) useCoriolis =  /* Coriolis on/off flag */
(PID.TID 0000.0001)                   F
(PID.TID 0000.0001)     ;
(PID.TID 0000.0001) useCDscheme =  /* CD scheme on/off flag */
(PID.TID 0000.0001)                   F
(PID.TID 0000.0001)     ;
(PID.TID 0000.0001) useEnergyConservingCoriolis= /* Flx-Form Coriolis scheme flag */
(PID.TID 0000.0001)                   F
(PID.TID 0000.0001)     ;
(PID.TID 0000.0001) useJamartWetPoints= /* Coriolis WetPoints method flag */
(PID.TID 0000.0001)                   F
(PID.TID 0000.0001)     ;
(PID.TID 0000.0001) useJamartMomAdv= /* V.I Non-linear terms Jamart flag */
(PID.TID 0000.0001)                   F
(PID.TID 0000.0001)     ;
(PID.TID 0000.0001) useAbsVorticity= /* V.I Works with f+zeta in Coriolis */
(PID.TID 0000.0001)                   F
(PID.TID 0000.0001)     ;
(PID.TID 0000.0001) selectVortScheme= /* V.I Scheme selector for Vorticity-Term */
(PID.TID 0000.0001)               123456789
(PID.TID 0000.0001)    = 0 : enstrophy (Shallow-Water Eq.) conserving scheme by Sadourny, JAS 75
(PID.TID 0000.0001)    = 1 : same as 0 with modified hFac
(PID.TID 0000.0001)    = 2 : energy conserving scheme (used by Sadourny in JAS 75 paper)
(PID.TID 0000.0001)    = 3 : energy (general) and enstrophy (2D, nonDiv.) conserving scheme
(PID.TID 0000.0001)          from Sadourny (Burridge & Haseler, ECMWF Rep.4, 1977)
(PID.TID 0000.0001)     ;
(PID.TID 0000.0001) upwindVorticity= /* V.I Upwind bias vorticity flag */
(PID.TID 0000.0001)                   F
(PID.TID 0000.0001)     ;
(PID.TID 0000.0001) highOrderVorticity= /* V.I High order vort. advect. flag */
(PID.TID 0000.0001)                   F
(PID.TID 0000.0001)     ;
(PID.TID 0000.0001) upwindShear= /* V.I Upwind vertical Shear advection flag */
(PID.TID 0000.0001)                   F
(PID.TID 0000.0001)     ;
(PID.TID 0000.0001) selectKEscheme= /* V.I Kinetic Energy scheme selector */
(PID.TID 0000.0001)                       0
(PID.TID 0000.0001)     ;
(PID.TID 0000.0001) momForcing =  /* Momentum forcing on/off flag */
(PID.TID 0000.0001)                   F
(PID.TID 0000.0001)     ;
(PID.TID 0000.0001) momPressureForcing =  /* Momentum pressure term on/off flag */
(PID.TID 0000.0001)                   F
(PID.TID 0000.0001)     ;
(PID.TID 0000.0001) implicitIntGravWave= /* Implicit Internal Gravity Wave flag */
(PID.TID 0000.0001)                   F
(PID.TID 0000.0001)     ;
(PID.TID 0000.0001) staggerTimeStep =    /* Stagger time stepping on/off flag */
(PID.TID 0000.0001)                   F
(PID.TID 0000.0001)     ;
(PID.TID 0000.0001) doResetHFactors = /* reset thickness factors @ each time-step */
(PID.TID 0000.0001)                   F
(PID.TID 0000.0001)     ;
(PID.TID 0000.0001) multiDimAdvection =  /* enable/disable Multi-Dim Advection */
(PID.TID 0000.0001)                   T
(PID.TID 0000.0001)     ;
(PID.TID 0000.0001) useMultiDimAdvec =   /* Multi-Dim Advection is/is-not used */
(PID.TID 0000.0001)                   T
(PID.TID 0000.0001)     ;
(PID.TID 0000.0001) implicitDiffusion = /* Implicit Diffusion on/off flag */
(PID.TID 0000.0001)                   T
(PID.TID 0000.0001)     ;
(PID.TID 0000.0001) tempStepping =  /* Temperature equation on/off flag */
(PID.TID 0000.0001)                   T
(PID.TID 0000.0001)     ;
(PID.TID 0000.0001) tempAdvection=  /* Temperature advection on/off flag */
(PID.TID 0000.0001)                   T
(PID.TID 0000.0001)     ;
(PID.TID 0000.0001) tempImplVertAdv = /* Temp. implicit vert. advection on/off */
(PID.TID 0000.0001)                   F
(PID.TID 0000.0001)     ;
(PID.TID 0000.0001) tempForcing  =  /* Temperature forcing on/off flag */
(PID.TID 0000.0001)                   T
(PID.TID 0000.0001)     ;
(PID.TID 0000.0001) tempIsActiveTr = /* Temp. is a dynamically Active Tracer */
(PID.TID 0000.0001)                   F
(PID.TID 0000.0001)     ;
(PID.TID 0000.0001) saltStepping =  /* Salinity equation on/off flag */
(PID.TID 0000.0001)                   F
(PID.TID 0000.0001)     ;
(PID.TID 0000.0001) saltAdvection=  /* Salinity advection on/off flag */
(PID.TID 0000.0001)                   F
(PID.TID 0000.0001)     ;
(PID.TID 0000.0001) saltImplVertAdv = /* Sali. implicit vert. advection on/off */
(PID.TID 0000.0001)                   F
(PID.TID 0000.0001)     ;
(PID.TID 0000.0001) saltForcing  =  /* Salinity forcing on/off flag */
(PID.TID 0000.0001)                   F
(PID.TID 0000.0001)     ;
(PID.TID 0000.0001) saltIsActiveTr = /* Salt  is a dynamically Active Tracer */
(PID.TID 0000.0001)                   F
(PID.TID 0000.0001)     ;
(PID.TID 0000.0001)  readBinaryPrec = /* Precision used for reading binary files */
(PID.TID 0000.0001)                      32
(PID.TID 0000.0001)     ;
(PID.TID 0000.0001) writeBinaryPrec = /* Precision used for writing binary files */
(PID.TID 0000.0001)                      32
(PID.TID 0000.0001)     ;
(PID.TID 0000.0001)  globalFiles = /* write "global" (=not per tile) files */
(PID.TID 0000.0001)                   F
(PID.TID 0000.0001)     ;
(PID.TID 0000.0001)  useSingleCpuIO = /* only master MPI process does I/O */
(PID.TID 0000.0001)                   T
(PID.TID 0000.0001)     ;
(PID.TID 0000.0001) /* debLev[*]  : level of debug & auxiliary message printing */
(PID.TID 0000.0001) debLevZero =  0 ; /* level of disabled aux. msg printing */
(PID.TID 0000.0001)    debLevA =  1 ; /* level of minimum  aux. msg printing */
(PID.TID 0000.0001)    debLevB =  2 ; /* level of low aux. print (report read-file opening)*/
(PID.TID 0000.0001)    debLevC =  3 ; /* level of moderate debug prt (most pkgs debug msg) */
(PID.TID 0000.0001)    debLevD =  4 ; /* level of enhanced debug prt (add DEBUG_STATS prt) */
(PID.TID 0000.0001)    debLevE =  5 ; /* level of extensive debug printing */
(PID.TID 0000.0001) debugLevel =  /* select debug printing level */
(PID.TID 0000.0001)                       2
(PID.TID 0000.0001)     ;
(PID.TID 0000.0001) //
(PID.TID 0000.0001) // Elliptic solver(s) paramters ( PARM02 in namelist )
(PID.TID 0000.0001) //
(PID.TID 0000.0001) cg2dMaxIters =   /* Upper limit on 2d con. grad iterations  */
(PID.TID 0000.0001)                     300
(PID.TID 0000.0001)     ;
(PID.TID 0000.0001) cg2dChkResFreq =   /* 2d con. grad convergence test frequency */
(PID.TID 0000.0001)                       1
(PID.TID 0000.0001)     ;
(PID.TID 0000.0001) cg2dTargetResidual =   /* 2d con. grad target residual  */
(PID.TID 0000.0001)                 1.000000000000000E-07
(PID.TID 0000.0001)     ;
(PID.TID 0000.0001) cg2dTargetResWunit =   /* CG2d target residual [W units] */
(PID.TID 0000.0001)                -1.000000000000000E+00
(PID.TID 0000.0001)     ;
(PID.TID 0000.0001) cg2dPreCondFreq =   /* Freq. for updating cg2d preconditioner */
(PID.TID 0000.0001)                       1
(PID.TID 0000.0001)     ;
(PID.TID 0000.0001) useSRCGSolver =  /* use single reduction CG solver(s) */
(PID.TID 0000.0001)                   F
(PID.TID 0000.0001)     ;
(PID.TID 0000.0001) printResidualFreq = /* Freq. for printing CG residual */
(PID.TID 0000.0001)                       0
(PID.TID 0000.0001)     ;
(PID.TID 0000.0001) //
(PID.TID 0000.0001) // Time stepping paramters ( PARM03 in namelist )
(PID.TID 0000.0001) //
(PID.TID 0000.0001) deltaTmom =   /* Momentum equation timestep ( s ) */
(PID.TID 0000.0001)                 1.080000000000000E+04
(PID.TID 0000.0001)     ;
(PID.TID 0000.0001) deltaTfreesurf = /* FreeSurface equation timestep ( s ) */
(PID.TID 0000.0001)                 1.080000000000000E+04
(PID.TID 0000.0001)     ;
(PID.TID 0000.0001) dTtracerLev =  /* Tracer equation timestep ( s ) */
(PID.TID 0000.0001)    35 @  1.080000000000000E+04              /* K =  1: 35 */
(PID.TID 0000.0001)     ;
(PID.TID 0000.0001) deltaTClock  =   /* Model clock timestep ( s ) */
(PID.TID 0000.0001)                 1.080000000000000E+04
(PID.TID 0000.0001)     ;
(PID.TID 0000.0001) cAdjFreq =   /* Convective adjustment interval ( s ) */
(PID.TID 0000.0001)                 0.000000000000000E+00
(PID.TID 0000.0001)     ;
(PID.TID 0000.0001) momForcingOutAB = /* =1: take Momentum Forcing out of Adams-Bash. stepping */
(PID.TID 0000.0001)                       0
(PID.TID 0000.0001)     ;
(PID.TID 0000.0001) tracForcingOutAB = /* =1: take T,S,pTr Forcing out of Adams-Bash. stepping */
(PID.TID 0000.0001)                       0
(PID.TID 0000.0001)     ;
(PID.TID 0000.0001) momDissip_In_AB = /* put Dissipation Tendency in Adams-Bash. stepping */
(PID.TID 0000.0001)                   T
(PID.TID 0000.0001)     ;
(PID.TID 0000.0001) doAB_onGtGs = /* apply AB on Tendencies (rather than on T,S)*/
(PID.TID 0000.0001)                   T
(PID.TID 0000.0001)     ;
(PID.TID 0000.0001) abEps =   /* Adams-Bashforth-2 stabilizing weight */
(PID.TID 0000.0001)                 1.000000000000000E-01
(PID.TID 0000.0001)     ;
(PID.TID 0000.0001) pickupStrictlyMatch= /* stop if pickup do not strictly match */
(PID.TID 0000.0001)                   T
(PID.TID 0000.0001)     ;
(PID.TID 0000.0001) nIter0   =   /* Run starting timestep number */
(PID.TID 0000.0001)                       0
(PID.TID 0000.0001)     ;
(PID.TID 0000.0001) nTimeSteps = /* Number of timesteps */
(PID.TID 0000.0001)                       4
(PID.TID 0000.0001)     ;
(PID.TID 0000.0001) nEndIter =   /* Run ending timestep number */
(PID.TID 0000.0001)                       4
(PID.TID 0000.0001)     ;
(PID.TID 0000.0001) baseTime =   /* Model base time ( s ) */
(PID.TID 0000.0001)                 0.000000000000000E+00
(PID.TID 0000.0001)     ;
(PID.TID 0000.0001) startTime =  /* Run start time ( s ) */
(PID.TID 0000.0001)                 0.000000000000000E+00
(PID.TID 0000.0001)     ;
(PID.TID 0000.0001) endTime  =   /* Integration ending time ( s ) */
(PID.TID 0000.0001)                 4.320000000000000E+04
(PID.TID 0000.0001)     ;
(PID.TID 0000.0001) pChkPtFreq = /* Permanent restart/pickup file interval ( s ) */
(PID.TID 0000.0001)                 3.110400000000000E+07
(PID.TID 0000.0001)     ;
(PID.TID 0000.0001) chkPtFreq  = /* Rolling restart/pickup file interval ( s ) */
(PID.TID 0000.0001)                 3.110400000000000E+07
(PID.TID 0000.0001)     ;
(PID.TID 0000.0001) pickup_write_mdsio =   /* Model IO flag. */
(PID.TID 0000.0001)                   T
(PID.TID 0000.0001)     ;
(PID.TID 0000.0001) pickup_read_mdsio =   /* Model IO flag. */
(PID.TID 0000.0001)                   T
(PID.TID 0000.0001)     ;
(PID.TID 0000.0001) pickup_write_mnc =   /* Model IO flag. */
(PID.TID 0000.0001)                   F
(PID.TID 0000.0001)     ;
(PID.TID 0000.0001) pickup_read_mnc =   /* Model IO flag. */
(PID.TID 0000.0001)                   F
(PID.TID 0000.0001)     ;
(PID.TID 0000.0001) pickup_write_immed =   /* Model IO flag. */
(PID.TID 0000.0001)                   F
(PID.TID 0000.0001)     ;
(PID.TID 0000.0001) writePickupAtEnd =   /* Model IO flag. */
(PID.TID 0000.0001)                   T
(PID.TID 0000.0001)     ;
(PID.TID 0000.0001) dumpFreq =   /* Model state write out interval ( s ). */
(PID.TID 0000.0001)                 3.110400000000000E+07
(PID.TID 0000.0001)     ;
(PID.TID 0000.0001) dumpInitAndLast= /* write out Initial & Last iter. model state */
(PID.TID 0000.0001)                   T
(PID.TID 0000.0001)     ;
(PID.TID 0000.0001) snapshot_mdsio =   /* Model IO flag. */
(PID.TID 0000.0001)                   F
(PID.TID 0000.0001)     ;
(PID.TID 0000.0001) snapshot_mnc =   /* Model IO flag. */
(PID.TID 0000.0001)                   T
(PID.TID 0000.0001)     ;
(PID.TID 0000.0001) monitorFreq =   /* Monitor output interval ( s ). */
(PID.TID 0000.0001)                 1.000000000000000E+00
(PID.TID 0000.0001)     ;
(PID.TID 0000.0001) monitorSelect = /* select group of variables to monitor */
(PID.TID 0000.0001)                       3
(PID.TID 0000.0001)     ;
(PID.TID 0000.0001) monitor_stdio =   /* Model IO flag. */
(PID.TID 0000.0001)                   T
(PID.TID 0000.0001)     ;
(PID.TID 0000.0001) monitor_mnc =   /* Model IO flag. */
(PID.TID 0000.0001)                   F
(PID.TID 0000.0001)     ;
(PID.TID 0000.0001) externForcingPeriod =   /* forcing period (s) */
(PID.TID 0000.0001)                 2.592000000000000E+06
(PID.TID 0000.0001)     ;
(PID.TID 0000.0001) externForcingCycle =   /* period of the cyle (s). */
(PID.TID 0000.0001)                 3.110400000000000E+07
(PID.TID 0000.0001)     ;
(PID.TID 0000.0001) tauThetaClimRelax =   /* relaxation time scale (s) */
(PID.TID 0000.0001)                 2.592000000000000E+05
(PID.TID 0000.0001)     ;
(PID.TID 0000.0001) tauSaltClimRelax =   /* relaxation time scale (s) */
(PID.TID 0000.0001)                 0.000000000000000E+00
(PID.TID 0000.0001)     ;
(PID.TID 0000.0001) latBandClimRelax =   /* max. Lat. where relaxation */
(PID.TID 0000.0001)                 1.800000000000000E+02
(PID.TID 0000.0001)     ;
(PID.TID 0000.0001) //
(PID.TID 0000.0001) // Gridding paramters ( PARM04 in namelist )
(PID.TID 0000.0001) //
(PID.TID 0000.0001) usingCartesianGrid = /* Cartesian coordinates flag ( True/False ) */
(PID.TID 0000.0001)                   F
(PID.TID 0000.0001)     ;
(PID.TID 0000.0001) usingCylindricalGrid = /* Cylindrical coordinates flag ( True/False ) */
(PID.TID 0000.0001)                   F
(PID.TID 0000.0001)     ;
(PID.TID 0000.0001) usingSphericalPolarGrid = /* Spherical coordinates flag ( True/False ) */
(PID.TID 0000.0001)                   T
(PID.TID 0000.0001)     ;
(PID.TID 0000.0001) usingCurvilinearGrid = /* Curvilinear coordinates flag ( True/False ) */
(PID.TID 0000.0001)                   F
(PID.TID 0000.0001)     ;
(PID.TID 0000.0001) selectSigmaCoord = /* Hybrid-Sigma Vert. Coordinate option */
(PID.TID 0000.0001)                       0
(PID.TID 0000.0001)     ;
(PID.TID 0000.0001) Ro_SeaLevel = /* r(1) ( units of r ==  m ) */
(PID.TID 0000.0001)                 0.000000000000000E+00
(PID.TID 0000.0001)     ;
(PID.TID 0000.0001) rSigmaBnd = /* r/sigma transition ( units of r ==  m ) */
(PID.TID 0000.0001)                 1.234567000000000E+05
(PID.TID 0000.0001)     ;
(PID.TID 0000.0001) rkSign =   /* index orientation relative to vertical coordinate */
(PID.TID 0000.0001)                -1.000000000000000E+00
(PID.TID 0000.0001)     ;
(PID.TID 0000.0001) gravitySign = /* gravity orientation relative to vertical coordinate */
(PID.TID 0000.0001)                -1.000000000000000E+00
(PID.TID 0000.0001)     ;
(PID.TID 0000.0001) mass2rUnit = /* convert mass per unit area [kg/m2] to r-units [m] */
(PID.TID 0000.0001)                 1.000200040008002E-03
(PID.TID 0000.0001)     ;
(PID.TID 0000.0001) rUnit2mass = /* convert r-units [m] to mass per unit area [kg/m2] */
(PID.TID 0000.0001)                 9.998000000000000E+02
(PID.TID 0000.0001)     ;
(PID.TID 0000.0001) drC =   /* C spacing ( units of r ) */
(PID.TID 0000.0001)                 5.000000000000000E+00,      /* K =  1 */
(PID.TID 0000.0001)    13 @  1.000000000000000E+01,             /* K =  2: 14 */
(PID.TID 0000.0001)                 1.250000000000000E+01,      /* K = 15 */
(PID.TID 0000.0001)     4 @  1.500000000000000E+01,             /* K = 16: 19 */
(PID.TID 0000.0001)                 1.750000000000000E+01,      /* K = 20 */
(PID.TID 0000.0001)     3 @  2.000000000000000E+01,             /* K = 21: 23 */
(PID.TID 0000.0001)                 3.500000000000000E+01,      /* K = 24 */
(PID.TID 0000.0001)                 5.000000000000000E+01,      /* K = 25 */
(PID.TID 0000.0001)                 7.500000000000000E+01,      /* K = 26 */
(PID.TID 0000.0001)                 1.250000000000000E+02,      /* K = 27 */
(PID.TID 0000.0001)                 1.500000000000000E+02,      /* K = 28 */
(PID.TID 0000.0001)                 1.750000000000000E+02,      /* K = 29 */
(PID.TID 0000.0001)                 2.500000000000000E+02,      /* K = 30 */
(PID.TID 0000.0001)                 3.500000000000000E+02,      /* K = 31 */
(PID.TID 0000.0001)     2 @  4.000000000000000E+02,             /* K = 32: 33 */
(PID.TID 0000.0001)                 4.500000000000000E+02,      /* K = 34 */
(PID.TID 0000.0001)                 5.000000000000000E+02       /* K = 35 */
(PID.TID 0000.0001)     ;
(PID.TID 0000.0001) drF =   /* W spacing ( units of r ) */
(PID.TID 0000.0001)    14 @  1.000000000000000E+01,             /* K =  1: 14 */
(PID.TID 0000.0001)     5 @  1.500000000000000E+01,             /* K = 15: 19 */
(PID.TID 0000.0001)     4 @  2.000000000000000E+01,             /* K = 20: 23 */
(PID.TID 0000.0001)     2 @  5.000000000000000E+01,             /* K = 24: 25 */
(PID.TID 0000.0001)                 1.000000000000000E+02,      /* K = 26 */
(PID.TID 0000.0001)     2 @  1.500000000000000E+02,             /* K = 27: 28 */
(PID.TID 0000.0001)                 2.000000000000000E+02,      /* K = 29 */
(PID.TID 0000.0001)                 3.000000000000000E+02,      /* K = 30 */
(PID.TID 0000.0001)     3 @  4.000000000000000E+02,             /* K = 31: 33 */
(PID.TID 0000.0001)     2 @  5.000000000000000E+02              /* K = 34: 35 */
(PID.TID 0000.0001)     ;
(PID.TID 0000.0001) delX = /* U spacing ( m - cartesian, degrees - spherical ) */
(PID.TID 0000.0001)                 1.000000000000000E+00       /* I =  1 */
(PID.TID 0000.0001)     ;
(PID.TID 0000.0001) delY = /* V spacing ( m - cartesian, degrees - spherical ) */
(PID.TID 0000.0001)                 1.000000000000000E+00       /* J =  1 */
(PID.TID 0000.0001)     ;
(PID.TID 0000.0001) xgOrigin = /* X-axis origin of West  edge (cartesian: m, lat-lon: deg.) */
(PID.TID 0000.0001)                 3.350000000000000E+02
(PID.TID 0000.0001)     ;
(PID.TID 0000.0001) ygOrigin = /* Y-axis origin of South edge (cartesian: m, lat-lon: deg.) */
(PID.TID 0000.0001)                -1.800000000000000E+01
(PID.TID 0000.0001)     ;
(PID.TID 0000.0001) rSphere =  /* Radius ( ignored - cartesian, m - spherical ) */
(PID.TID 0000.0001)                 6.370000000000000E+06
(PID.TID 0000.0001)     ;
(PID.TID 0000.0001) deepAtmosphere = /* Deep/Shallow Atmosphere flag (True/False) */
(PID.TID 0000.0001)                   F
(PID.TID 0000.0001)     ;
(PID.TID 0000.0001) xC =  /* xC(:,1,:,1) : P-point X coord ( deg. or m if cartesian) */
(PID.TID 0000.0001)                 3.355000000000000E+02       /* I =  1 */
(PID.TID 0000.0001)     ;
(PID.TID 0000.0001) yC =  /* yC(1,:,1,:) : P-point Y coord ( deg. or m if cartesian) */
(PID.TID 0000.0001)                -1.750000000000000E+01       /* J =  1 */
(PID.TID 0000.0001)     ;
(PID.TID 0000.0001) rcoord = /* P-point R coordinate (  units of r ) */
(PID.TID 0000.0001)                -5.000000000000000E+00,      /* K =  1 */
(PID.TID 0000.0001)                -1.500000000000000E+01,      /* K =  2 */
(PID.TID 0000.0001)                -2.500000000000000E+01,      /* K =  3 */
(PID.TID 0000.0001)                -3.500000000000000E+01,      /* K =  4 */
(PID.TID 0000.0001)                -4.500000000000000E+01,      /* K =  5 */
(PID.TID 0000.0001)                -5.500000000000000E+01,      /* K =  6 */
(PID.TID 0000.0001)                -6.500000000000000E+01,      /* K =  7 */
(PID.TID 0000.0001)                -7.500000000000000E+01,      /* K =  8 */
(PID.TID 0000.0001)                -8.500000000000000E+01,      /* K =  9 */
(PID.TID 0000.0001)                -9.500000000000000E+01,      /* K = 10 */
(PID.TID 0000.0001)                -1.050000000000000E+02,      /* K = 11 */
(PID.TID 0000.0001)                -1.150000000000000E+02,      /* K = 12 */
(PID.TID 0000.0001)                -1.250000000000000E+02,      /* K = 13 */
(PID.TID 0000.0001)                -1.350000000000000E+02,      /* K = 14 */
(PID.TID 0000.0001)                -1.475000000000000E+02,      /* K = 15 */
(PID.TID 0000.0001)                -1.625000000000000E+02,      /* K = 16 */
(PID.TID 0000.0001)                -1.775000000000000E+02,      /* K = 17 */
(PID.TID 0000.0001)                -1.925000000000000E+02,      /* K = 18 */
(PID.TID 0000.0001)                -2.075000000000000E+02,      /* K = 19 */
(PID.TID 0000.0001)                -2.250000000000000E+02,      /* K = 20 */
(PID.TID 0000.0001)                -2.450000000000000E+02,      /* K = 21 */
(PID.TID 0000.0001)                -2.650000000000000E+02,      /* K = 22 */
(PID.TID 0000.0001)                -2.850000000000000E+02,      /* K = 23 */
(PID.TID 0000.0001)                -3.200000000000000E+02,      /* K = 24 */
(PID.TID 0000.0001)                -3.700000000000000E+02,      /* K = 25 */
(PID.TID 0000.0001)                -4.450000000000000E+02,      /* K = 26 */
(PID.TID 0000.0001)                -5.700000000000000E+02,      /* K = 27 */
(PID.TID 0000.0001)                -7.200000000000000E+02,      /* K = 28 */
(PID.TID 0000.0001)                -8.950000000000000E+02,      /* K = 29 */
(PID.TID 0000.0001)                -1.145000000000000E+03,      /* K = 30 */
(PID.TID 0000.0001)                -1.495000000000000E+03,      /* K = 31 */
(PID.TID 0000.0001)                -1.895000000000000E+03,      /* K = 32 */
(PID.TID 0000.0001)                -2.295000000000000E+03,      /* K = 33 */
(PID.TID 0000.0001)                -2.745000000000000E+03,      /* K = 34 */
(PID.TID 0000.0001)                -3.245000000000000E+03       /* K = 35 */
(PID.TID 0000.0001)     ;
(PID.TID 0000.0001) rF =   /* W-Interf. R coordinate (  units of r ) */
(PID.TID 0000.0001)                 0.000000000000000E+00,      /* K =  1 */
(PID.TID 0000.0001)                -1.000000000000000E+01,      /* K =  2 */
(PID.TID 0000.0001)                -2.000000000000000E+01,      /* K =  3 */
(PID.TID 0000.0001)                -3.000000000000000E+01,      /* K =  4 */
(PID.TID 0000.0001)                -4.000000000000000E+01,      /* K =  5 */
(PID.TID 0000.0001)                -5.000000000000000E+01,      /* K =  6 */
(PID.TID 0000.0001)                -6.000000000000000E+01,      /* K =  7 */
(PID.TID 0000.0001)                -7.000000000000000E+01,      /* K =  8 */
(PID.TID 0000.0001)                -8.000000000000000E+01,      /* K =  9 */
(PID.TID 0000.0001)                -9.000000000000000E+01,      /* K = 10 */
(PID.TID 0000.0001)                -1.000000000000000E+02,      /* K = 11 */
(PID.TID 0000.0001)                -1.100000000000000E+02,      /* K = 12 */
(PID.TID 0000.0001)                -1.200000000000000E+02,      /* K = 13 */
(PID.TID 0000.0001)                -1.300000000000000E+02,      /* K = 14 */
(PID.TID 0000.0001)                -1.400000000000000E+02,      /* K = 15 */
(PID.TID 0000.0001)                -1.550000000000000E+02,      /* K = 16 */
(PID.TID 0000.0001)                -1.700000000000000E+02,      /* K = 17 */
(PID.TID 0000.0001)                -1.850000000000000E+02,      /* K = 18 */
(PID.TID 0000.0001)                -2.000000000000000E+02,      /* K = 19 */
(PID.TID 0000.0001)                -2.150000000000000E+02,      /* K = 20 */
(PID.TID 0000.0001)                -2.350000000000000E+02,      /* K = 21 */
(PID.TID 0000.0001)                -2.550000000000000E+02,      /* K = 22 */
(PID.TID 0000.0001)                -2.750000000000000E+02,      /* K = 23 */
(PID.TID 0000.0001)                -2.950000000000000E+02,      /* K = 24 */
(PID.TID 0000.0001)                -3.450000000000000E+02,      /* K = 25 */
(PID.TID 0000.0001)                -3.950000000000000E+02,      /* K = 26 */
(PID.TID 0000.0001)                -4.950000000000000E+02,      /* K = 27 */
(PID.TID 0000.0001)                -6.450000000000000E+02,      /* K = 28 */
(PID.TID 0000.0001)                -7.950000000000000E+02,      /* K = 29 */
(PID.TID 0000.0001)                -9.950000000000000E+02,      /* K = 30 */
(PID.TID 0000.0001)                -1.295000000000000E+03,      /* K = 31 */
(PID.TID 0000.0001)                -1.695000000000000E+03,      /* K = 32 */
(PID.TID 0000.0001)                -2.095000000000000E+03,      /* K = 33 */
(PID.TID 0000.0001)                -2.495000000000000E+03,      /* K = 34 */
(PID.TID 0000.0001)                -2.995000000000000E+03,      /* K = 35 */
(PID.TID 0000.0001)                -3.495000000000000E+03       /* K = 36 */
(PID.TID 0000.0001)     ;
(PID.TID 0000.0001) deepFacC = /* deep-model grid factor @ cell-Center (-) */
(PID.TID 0000.0001)    35 @  1.000000000000000E+00              /* K =  1: 35 */
(PID.TID 0000.0001)     ;
(PID.TID 0000.0001) deepFacF = /* deep-model grid factor @ W-Interface (-) */
(PID.TID 0000.0001)    36 @  1.000000000000000E+00              /* K =  1: 36 */
(PID.TID 0000.0001)     ;
(PID.TID 0000.0001) rVel2wUnit = /* convert units: rVel -> wSpeed (=1 if z-coord)*/
(PID.TID 0000.0001)    36 @  1.000000000000000E+00              /* K =  1: 36 */
(PID.TID 0000.0001)     ;
(PID.TID 0000.0001) wUnit2rVel = /* convert units: wSpeed -> rVel (=1 if z-coord)*/
(PID.TID 0000.0001)    36 @  1.000000000000000E+00              /* K =  1: 36 */
(PID.TID 0000.0001)     ;
(PID.TID 0000.0001) dBdrRef = /* Vertical grad. of reference buoyancy [(m/s/r)^2] */
(PID.TID 0000.0001)                 0.000000000000000E+00,      /* K =  1 */
(PID.TID 0000.0001)                 1.232578190459821E-04,      /* K =  2 */
(PID.TID 0000.0001)                 3.063957957303617E-05,      /* K =  3 */
(PID.TID 0000.0001)                 1.521320422054373E-04,      /* K =  4 */
(PID.TID 0000.0001)                 3.021271930223580E-05,      /* K =  5 */
(PID.TID 0000.0001)                 1.499903428890670E-04,      /* K =  6 */
(PID.TID 0000.0001)                 1.186737265074332E-04,      /* K =  7 */
(PID.TID 0000.0001)                 1.466841384627423E-04,      /* K =  8 */
(PID.TID 0000.0001)                 8.712618931102987E-05,      /* K =  9 */
(PID.TID 0000.0001)                 1.151380441308261E-04,      /* K = 10 */
(PID.TID 0000.0001)                 5.712979717883684E-05,      /* K = 11 */
(PID.TID 0000.0001)                 8.515049872565506E-05,      /* K = 12 */
(PID.TID 0000.0001)                 8.448721842774896E-05,      /* K = 13 */
(PID.TID 0000.0001)                 1.116043428725511E-04,      /* K = 14 */
(PID.TID 0000.0001)                 1.102373809396796E-04,      /* K = 15 */
(PID.TID 0000.0001)                 1.798828639202717E-04,      /* K = 16 */
(PID.TID 0000.0001)                 1.918102676980872E-04,      /* K = 17 */
(PID.TID 0000.0001)                 1.853506120896664E-04,      /* K = 18 */
(PID.TID 0000.0001)                 1.787791674911888E-04,      /* K = 19 */
(PID.TID 0000.0001)                 9.455522998141848E-05,      /* K = 20 */
(PID.TID 0000.0001)                 1.259231836379978E-04,      /* K = 21 */
(PID.TID 0000.0001)                 9.923620256554768E-05,      /* K = 22 */
(PID.TID 0000.0001)                 8.531935398693722E-05,      /* K = 23 */
(PID.TID 0000.0001)                 4.137475825384700E-05,      /* K = 24 */
(PID.TID 0000.0001)                 5.930109718499171E-05,      /* K = 25 */
(PID.TID 0000.0001)                 3.689739454308316E-05,      /* K = 26 */
(PID.TID 0000.0001)                 3.215311288275425E-05,      /* K = 27 */
(PID.TID 0000.0001)                 2.340106578013931E-05,      /* K = 28 */
(PID.TID 0000.0001)                 8.957465806881803E-06,      /* K = 29 */
(PID.TID 0000.0001)                 2.029141226789735E-06,      /* K = 30 */
(PID.TID 0000.0001)                 0.000000000000000E+00,      /* K = 31 */
(PID.TID 0000.0001)                 1.052869956707729E-06,      /* K = 32 */
(PID.TID 0000.0001)                 1.465965950004292E-06,      /* K = 33 */
(PID.TID 0000.0001)                 6.817081889333135E-07,      /* K = 34 */
(PID.TID 0000.0001)                 6.544800624285541E-07       /* K = 35 */
(PID.TID 0000.0001)     ;
(PID.TID 0000.0001) rotateGrid = /* use rotated grid ( True/False ) */
(PID.TID 0000.0001)                   F
(PID.TID 0000.0001)     ;
(PID.TID 0000.0001) phiEuler = /* Euler angle, rotation about original z-coordinate [rad] */
(PID.TID 0000.0001)                 0.000000000000000E+00
(PID.TID 0000.0001)     ;
(PID.TID 0000.0001) thetaEuler = /* Euler angle, rotation about new x-coordinate [rad] */
(PID.TID 0000.0001)                 0.000000000000000E+00
(PID.TID 0000.0001)     ;
(PID.TID 0000.0001) psiEuler = /* Euler angle, rotation about new z-coordinate [rad] */
(PID.TID 0000.0001)                 0.000000000000000E+00
(PID.TID 0000.0001)     ;
(PID.TID 0000.0001) dxF =  /* dxF(:,1,:,1) ( units: m ) */
(PID.TID 0000.0001)                 1.060318408771987E+05       /* I =  1 */
(PID.TID 0000.0001)     ;
(PID.TID 0000.0001) dxF =  /* dxF(1,:,1,:) ( units: m ) */
(PID.TID 0000.0001)                 1.060318408771987E+05       /* J =  1 */
(PID.TID 0000.0001)     ;
(PID.TID 0000.0001) dyF =  /* dyF(:,1,:,1) ( units: m ) */
(PID.TID 0000.0001)                 1.111774733520388E+05       /* I =  1 */
(PID.TID 0000.0001)     ;
(PID.TID 0000.0001) dyF =  /* dyF(1,:,1,:) ( units: m ) */
(PID.TID 0000.0001)                 1.111774733520388E+05       /* J =  1 */
(PID.TID 0000.0001)     ;
(PID.TID 0000.0001) dxG =  /* dxG(:,1,:,1) ( units: m ) */
(PID.TID 0000.0001)                 1.057360604966873E+05       /* I =  1 */
(PID.TID 0000.0001)     ;
(PID.TID 0000.0001) dxG =  /* dxG(1,:,1,:) ( units: m ) */
(PID.TID 0000.0001)                 1.057360604966873E+05       /* J =  1 */
(PID.TID 0000.0001)     ;
(PID.TID 0000.0001) dyG =  /* dyG(:,1,:,1) ( units: m ) */
(PID.TID 0000.0001)                 1.111774733520388E+05       /* I =  1 */
(PID.TID 0000.0001)     ;
(PID.TID 0000.0001) dyG =  /* dyG(1,:,1,:) ( units: m ) */
(PID.TID 0000.0001)                 1.111774733520388E+05       /* J =  1 */
(PID.TID 0000.0001)     ;
(PID.TID 0000.0001) dxC =  /* dxC(:,1,:,1) ( units: m ) */
(PID.TID 0000.0001)                 1.060318408771987E+05       /* I =  1 */
(PID.TID 0000.0001)     ;
(PID.TID 0000.0001) dxC =  /* dxC(1,:,1,:) ( units: m ) */
(PID.TID 0000.0001)                 1.060318408771987E+05       /* J =  1 */
(PID.TID 0000.0001)     ;
(PID.TID 0000.0001) dyC =  /* dyC(:,1,:,1) ( units: m ) */
(PID.TID 0000.0001)                 1.111774733520388E+05       /* I =  1 */
(PID.TID 0000.0001)     ;
(PID.TID 0000.0001) dyC =  /* dyC(1,:,1,:) ( units: m ) */
(PID.TID 0000.0001)                 1.111774733520388E+05       /* J =  1 */
(PID.TID 0000.0001)     ;
(PID.TID 0000.0001) dxV =  /* dxV(:,1,:,1) ( units: m ) */
(PID.TID 0000.0001)                 1.057360604966873E+05       /* I =  1 */
(PID.TID 0000.0001)     ;
(PID.TID 0000.0001) dxV =  /* dxV(1,:,1,:) ( units: m ) */
(PID.TID 0000.0001)                 1.057360604966873E+05       /* J =  1 */
(PID.TID 0000.0001)     ;
(PID.TID 0000.0001) dyU =  /* dyU(:,1,:,1) ( units: m ) */
(PID.TID 0000.0001)                 1.111774733520388E+05       /* I =  1 */
(PID.TID 0000.0001)     ;
(PID.TID 0000.0001) dyU =  /* dyU(1,:,1,:) ( units: m ) */
(PID.TID 0000.0001)                 1.111774733520388E+05       /* J =  1 */
(PID.TID 0000.0001)     ;
(PID.TID 0000.0001) rA  =  /* rA (:,1,:,1) ( units: m^2 ) */
(PID.TID 0000.0001)                 1.178820254176956E+10       /* I =  1 */
(PID.TID 0000.0001)     ;
(PID.TID 0000.0001) rA  =  /* rA (1,:,1,:) ( units: m^2 ) */
(PID.TID 0000.0001)                 1.178820254176956E+10       /* J =  1 */
(PID.TID 0000.0001)     ;
(PID.TID 0000.0001) rAw =  /* rAw(:,1,:,1) ( units: m^2 ) */
(PID.TID 0000.0001)                 1.178820254176956E+10       /* I =  1 */
(PID.TID 0000.0001)     ;
(PID.TID 0000.0001) rAw =  /* rAw(1,:,1,:) ( units: m^2 ) */
(PID.TID 0000.0001)                 1.178820254176956E+10       /* J =  1 */
(PID.TID 0000.0001)     ;
(PID.TID 0000.0001) rAs =  /* rAs(:,1,:,1) ( units: m^2 ) */
(PID.TID 0000.0001)                 1.175531884377377E+10       /* I =  1 */
(PID.TID 0000.0001)     ;
(PID.TID 0000.0001) rAs =  /* rAs(1,:,1,:) ( units: m^2 ) */
(PID.TID 0000.0001)                 1.175531884377377E+10       /* J =  1 */
(PID.TID 0000.0001)     ;
(PID.TID 0000.0001) globalArea = /* Integrated horizontal Area (m^2) */
(PID.TID 0000.0001)                 1.178820254176956E+10
(PID.TID 0000.0001)     ;
(PID.TID 0000.0001) // =======================================================
(PID.TID 0000.0001) // End of Model config. summary
(PID.TID 0000.0001) // =======================================================
(PID.TID 0000.0001) 
(PID.TID 0000.0001) == Packages configuration : Check & print summary ==
(PID.TID 0000.0001) 
(PID.TID 0000.0001) KPP_CHECK: #define ALLOW_KPP
(PID.TID 0000.0001) PTRACERS_CHECK: #define ALLOW_PTRACERS
(PID.TID 0000.0001) PTRACERS_CHECK: updated GAD_OlMinSize=  2  0  1
(PID.TID 0000.0001) // ===================================
(PID.TID 0000.0001) // PTRACERS parameters
(PID.TID 0000.0001) // ===================================
(PID.TID 0000.0001) PTRACERS_numInUse = /* number of tracers */
(PID.TID 0000.0001)                      75
(PID.TID 0000.0001)     ;
(PID.TID 0000.0001) PTRACERS_Iter0 = /* timestep number when tracers are initialized */
(PID.TID 0000.0001)                       0
(PID.TID 0000.0001)     ;
(PID.TID 0000.0001) PTRACERS_startAllTrc =/* all tracers start @ startTime */
(PID.TID 0000.0001)                   T
(PID.TID 0000.0001)     ;
(PID.TID 0000.0001) PTRACERS_addSrelax2EmP =/* add Salt relaxation to EmP */
(PID.TID 0000.0001)                   F
(PID.TID 0000.0001)     ;
(PID.TID 0000.0001) PTRACERS_dTLev =   /* Ptracer timestep ( s ) */
(PID.TID 0000.0001)    35 @  1.080000000000000E+04              /* K =  1: 35 */
(PID.TID 0000.0001)     ;
(PID.TID 0000.0001) PTRACERS_dumpFreq = /* Frequency^-1 for snapshot output (s) */
(PID.TID 0000.0001)                 3.110400000000000E+07
(PID.TID 0000.0001)     ;
(PID.TID 0000.0001) PTRACERS_taveFreq = /* Frequency^-1 for time-Aver. output (s) */
(PID.TID 0000.0001)                 8.640000000000000E+04
(PID.TID 0000.0001)     ;
(PID.TID 0000.0001) PTRACERS_useRecords = /* all tracers in 1 file */
(PID.TID 0000.0001)                   F
(PID.TID 0000.0001)     ;
(PID.TID 0000.0001) PTRACERS_timeave_mnc = /* use MNC for Tave output */
(PID.TID 0000.0001)                   T
(PID.TID 0000.0001)     ;
(PID.TID 0000.0001) PTRACERS_snapshot_mnc = /* use MNC for snapshot output */
(PID.TID 0000.0001)                   T
(PID.TID 0000.0001)     ;
(PID.TID 0000.0001) PTRACERS_pickup_write_mnc = /* use MNC for writing pickups */
(PID.TID 0000.0001)                   F
(PID.TID 0000.0001)     ;
(PID.TID 0000.0001) PTRACERS_pickup_read_mnc = /* use MNC for reading pickups */
(PID.TID 0000.0001)                   F
(PID.TID 0000.0001)     ;
(PID.TID 0000.0001)  -----------------------------------
(PID.TID 0000.0001)  tracer number :    1
(PID.TID 0000.0001) PTRACERS_names = /* Tracer short name */
(PID.TID 0000.0001)               'DIC'
(PID.TID 0000.0001)     ;
(PID.TID 0000.0001) PTRACERS_long_names = /* Tracer long name */
(PID.TID 0000.0001)               ''
(PID.TID 0000.0001)     ;
(PID.TID 0000.0001) PTRACERS_ioLabel = /* tracer IO Label */
(PID.TID 0000.0001)               '01'
(PID.TID 0000.0001)     ;
(PID.TID 0000.0001) PTRACERS_advScheme = /* Advection Scheme */
(PID.TID 0000.0001)                      33
(PID.TID 0000.0001)     ;
(PID.TID 0000.0001) PTRACERS_SOM_Advection = /* tracer uses SOM advection scheme */
(PID.TID 0000.0001)                   F
(PID.TID 0000.0001)     ;
(PID.TID 0000.0001) PTRACERS_ImplVertAdv = /* implicit vert. advection flag */
(PID.TID 0000.0001)                   F
(PID.TID 0000.0001)     ;
(PID.TID 0000.0001) PTRACERS_diffKh = /* Laplacian Diffusivity */
(PID.TID 0000.0001)                 0.000000000000000E+00
(PID.TID 0000.0001)     ;
(PID.TID 0000.0001) PTRACERS_diffK4 = /* Biharmonic Diffusivity */
(PID.TID 0000.0001)                 0.000000000000000E+00
(PID.TID 0000.0001)     ;
(PID.TID 0000.0001) PTRACERS_diffKrNr = /* Vertical Diffusivity */
(PID.TID 0000.0001)    35 @  1.000000000000000E-05              /* K =  1: 35 */
(PID.TID 0000.0001)     ;
(PID.TID 0000.0001) PTRACERS_useGMRedi = /* apply GM-Redi */
(PID.TID 0000.0001)                   F
(PID.TID 0000.0001)     ;
(PID.TID 0000.0001) PTRACERS_useDWNSLP = /* apply DOWN-SLOPE Flow */
(PID.TID 0000.0001)                   F
(PID.TID 0000.0001)     ;
(PID.TID 0000.0001) PTRACERS_useKPP = /* apply KPP scheme */
(PID.TID 0000.0001)                   T
(PID.TID 0000.0001)     ;
(PID.TID 0000.0001) PTRACERS_ref = /* Reference vertical profile */
(PID.TID 0000.0001)    35 @  0.000000000000000E+00              /* K =  1: 35 */
(PID.TID 0000.0001)     ;
(PID.TID 0000.0001) PTRACERS_EvPrRn =/* tracer conc. in Evap. & Rain */
(PID.TID 0000.0001)                 1.234567000000000E+05
(PID.TID 0000.0001)     ;
(PID.TID 0000.0001)  -----------------------------------
(PID.TID 0000.0001)  tracer number :    2
(PID.TID 0000.0001) PTRACERS_names = /* Tracer short name */
(PID.TID 0000.0001)               'NO3'
(PID.TID 0000.0001)     ;
(PID.TID 0000.0001) PTRACERS_long_names = /* Tracer long name */
(PID.TID 0000.0001)               ''
(PID.TID 0000.0001)     ;
(PID.TID 0000.0001) PTRACERS_ioLabel = /* tracer IO Label */
(PID.TID 0000.0001)               '02'
(PID.TID 0000.0001)     ;
(PID.TID 0000.0001) PTRACERS_advScheme = /* Advection Scheme */
(PID.TID 0000.0001)                      33
(PID.TID 0000.0001)     ;
(PID.TID 0000.0001) PTRACERS_SOM_Advection = /* tracer uses SOM advection scheme */
(PID.TID 0000.0001)                   F
(PID.TID 0000.0001)     ;
(PID.TID 0000.0001) PTRACERS_ImplVertAdv = /* implicit vert. advection flag */
(PID.TID 0000.0001)                   F
(PID.TID 0000.0001)     ;
(PID.TID 0000.0001) PTRACERS_diffKh = /* Laplacian Diffusivity */
(PID.TID 0000.0001)                 0.000000000000000E+00
(PID.TID 0000.0001)     ;
(PID.TID 0000.0001) PTRACERS_diffK4 = /* Biharmonic Diffusivity */
(PID.TID 0000.0001)                 0.000000000000000E+00
(PID.TID 0000.0001)     ;
(PID.TID 0000.0001) PTRACERS_diffKrNr = /* Vertical Diffusivity */
(PID.TID 0000.0001)    35 @  1.000000000000000E-05              /* K =  1: 35 */
(PID.TID 0000.0001)     ;
(PID.TID 0000.0001) PTRACERS_useGMRedi = /* apply GM-Redi */
(PID.TID 0000.0001)                   F
(PID.TID 0000.0001)     ;
(PID.TID 0000.0001) PTRACERS_useDWNSLP = /* apply DOWN-SLOPE Flow */
(PID.TID 0000.0001)                   F
(PID.TID 0000.0001)     ;
(PID.TID 0000.0001) PTRACERS_useKPP = /* apply KPP scheme */
(PID.TID 0000.0001)                   T
(PID.TID 0000.0001)     ;
(PID.TID 0000.0001) PTRACERS_ref = /* Reference vertical profile */
(PID.TID 0000.0001)    35 @  0.000000000000000E+00              /* K =  1: 35 */
(PID.TID 0000.0001)     ;
(PID.TID 0000.0001) PTRACERS_EvPrRn =/* tracer conc. in Evap. & Rain */
(PID.TID 0000.0001)                 1.234567000000000E+05
(PID.TID 0000.0001)     ;
(PID.TID 0000.0001)  -----------------------------------
(PID.TID 0000.0001)  tracer number :    3
(PID.TID 0000.0001) PTRACERS_names = /* Tracer short name */
(PID.TID 0000.0001)               'NO2'
(PID.TID 0000.0001)     ;
(PID.TID 0000.0001) PTRACERS_long_names = /* Tracer long name */
(PID.TID 0000.0001)               ''
(PID.TID 0000.0001)     ;
(PID.TID 0000.0001) PTRACERS_ioLabel = /* tracer IO Label */
(PID.TID 0000.0001)               '03'
(PID.TID 0000.0001)     ;
(PID.TID 0000.0001) PTRACERS_advScheme = /* Advection Scheme */
(PID.TID 0000.0001)                      33
(PID.TID 0000.0001)     ;
(PID.TID 0000.0001) PTRACERS_SOM_Advection = /* tracer uses SOM advection scheme */
(PID.TID 0000.0001)                   F
(PID.TID 0000.0001)     ;
(PID.TID 0000.0001) PTRACERS_ImplVertAdv = /* implicit vert. advection flag */
(PID.TID 0000.0001)                   F
(PID.TID 0000.0001)     ;
(PID.TID 0000.0001) PTRACERS_diffKh = /* Laplacian Diffusivity */
(PID.TID 0000.0001)                 0.000000000000000E+00
(PID.TID 0000.0001)     ;
(PID.TID 0000.0001) PTRACERS_diffK4 = /* Biharmonic Diffusivity */
(PID.TID 0000.0001)                 0.000000000000000E+00
(PID.TID 0000.0001)     ;
(PID.TID 0000.0001) PTRACERS_diffKrNr = /* Vertical Diffusivity */
(PID.TID 0000.0001)    35 @  1.000000000000000E-05              /* K =  1: 35 */
(PID.TID 0000.0001)     ;
(PID.TID 0000.0001) PTRACERS_useGMRedi = /* apply GM-Redi */
(PID.TID 0000.0001)                   F
(PID.TID 0000.0001)     ;
(PID.TID 0000.0001) PTRACERS_useDWNSLP = /* apply DOWN-SLOPE Flow */
(PID.TID 0000.0001)                   F
(PID.TID 0000.0001)     ;
(PID.TID 0000.0001) PTRACERS_useKPP = /* apply KPP scheme */
(PID.TID 0000.0001)                   T
(PID.TID 0000.0001)     ;
(PID.TID 0000.0001) PTRACERS_ref = /* Reference vertical profile */
(PID.TID 0000.0001)    35 @  0.000000000000000E+00              /* K =  1: 35 */
(PID.TID 0000.0001)     ;
(PID.TID 0000.0001) PTRACERS_EvPrRn =/* tracer conc. in Evap. & Rain */
(PID.TID 0000.0001)                 1.234567000000000E+05
(PID.TID 0000.0001)     ;
(PID.TID 0000.0001)  -----------------------------------
(PID.TID 0000.0001)  tracer number :    4
(PID.TID 0000.0001) PTRACERS_names = /* Tracer short name */
(PID.TID 0000.0001)               'NH4'
(PID.TID 0000.0001)     ;
(PID.TID 0000.0001) PTRACERS_long_names = /* Tracer long name */
(PID.TID 0000.0001)               ''
(PID.TID 0000.0001)     ;
(PID.TID 0000.0001) PTRACERS_ioLabel = /* tracer IO Label */
(PID.TID 0000.0001)               '04'
(PID.TID 0000.0001)     ;
(PID.TID 0000.0001) PTRACERS_advScheme = /* Advection Scheme */
(PID.TID 0000.0001)                      33
(PID.TID 0000.0001)     ;
(PID.TID 0000.0001) PTRACERS_SOM_Advection = /* tracer uses SOM advection scheme */
(PID.TID 0000.0001)                   F
(PID.TID 0000.0001)     ;
(PID.TID 0000.0001) PTRACERS_ImplVertAdv = /* implicit vert. advection flag */
(PID.TID 0000.0001)                   F
(PID.TID 0000.0001)     ;
(PID.TID 0000.0001) PTRACERS_diffKh = /* Laplacian Diffusivity */
(PID.TID 0000.0001)                 0.000000000000000E+00
(PID.TID 0000.0001)     ;
(PID.TID 0000.0001) PTRACERS_diffK4 = /* Biharmonic Diffusivity */
(PID.TID 0000.0001)                 0.000000000000000E+00
(PID.TID 0000.0001)     ;
(PID.TID 0000.0001) PTRACERS_diffKrNr = /* Vertical Diffusivity */
(PID.TID 0000.0001)    35 @  1.000000000000000E-05              /* K =  1: 35 */
(PID.TID 0000.0001)     ;
(PID.TID 0000.0001) PTRACERS_useGMRedi = /* apply GM-Redi */
(PID.TID 0000.0001)                   F
(PID.TID 0000.0001)     ;
(PID.TID 0000.0001) PTRACERS_useDWNSLP = /* apply DOWN-SLOPE Flow */
(PID.TID 0000.0001)                   F
(PID.TID 0000.0001)     ;
(PID.TID 0000.0001) PTRACERS_useKPP = /* apply KPP scheme */
(PID.TID 0000.0001)                   T
(PID.TID 0000.0001)     ;
(PID.TID 0000.0001) PTRACERS_ref = /* Reference vertical profile */
(PID.TID 0000.0001)    35 @  0.000000000000000E+00              /* K =  1: 35 */
(PID.TID 0000.0001)     ;
(PID.TID 0000.0001) PTRACERS_EvPrRn =/* tracer conc. in Evap. & Rain */
(PID.TID 0000.0001)                 1.234567000000000E+05
(PID.TID 0000.0001)     ;
(PID.TID 0000.0001)  -----------------------------------
(PID.TID 0000.0001)  tracer number :    5
(PID.TID 0000.0001) PTRACERS_names = /* Tracer short name */
(PID.TID 0000.0001)               'FeT'
(PID.TID 0000.0001)     ;
(PID.TID 0000.0001) PTRACERS_long_names = /* Tracer long name */
(PID.TID 0000.0001)               ''
(PID.TID 0000.0001)     ;
(PID.TID 0000.0001) PTRACERS_ioLabel = /* tracer IO Label */
(PID.TID 0000.0001)               '05'
(PID.TID 0000.0001)     ;
(PID.TID 0000.0001) PTRACERS_advScheme = /* Advection Scheme */
(PID.TID 0000.0001)                      33
(PID.TID 0000.0001)     ;
(PID.TID 0000.0001) PTRACERS_SOM_Advection = /* tracer uses SOM advection scheme */
(PID.TID 0000.0001)                   F
(PID.TID 0000.0001)     ;
(PID.TID 0000.0001) PTRACERS_ImplVertAdv = /* implicit vert. advection flag */
(PID.TID 0000.0001)                   F
(PID.TID 0000.0001)     ;
(PID.TID 0000.0001) PTRACERS_diffKh = /* Laplacian Diffusivity */
(PID.TID 0000.0001)                 0.000000000000000E+00
(PID.TID 0000.0001)     ;
(PID.TID 0000.0001) PTRACERS_diffK4 = /* Biharmonic Diffusivity */
(PID.TID 0000.0001)                 0.000000000000000E+00
(PID.TID 0000.0001)     ;
(PID.TID 0000.0001) PTRACERS_diffKrNr = /* Vertical Diffusivity */
(PID.TID 0000.0001)    35 @  1.000000000000000E-05              /* K =  1: 35 */
(PID.TID 0000.0001)     ;
(PID.TID 0000.0001) PTRACERS_useGMRedi = /* apply GM-Redi */
(PID.TID 0000.0001)                   F
(PID.TID 0000.0001)     ;
(PID.TID 0000.0001) PTRACERS_useDWNSLP = /* apply DOWN-SLOPE Flow */
(PID.TID 0000.0001)                   F
(PID.TID 0000.0001)     ;
(PID.TID 0000.0001) PTRACERS_useKPP = /* apply KPP scheme */
(PID.TID 0000.0001)                   T
(PID.TID 0000.0001)     ;
(PID.TID 0000.0001) PTRACERS_ref = /* Reference vertical profile */
(PID.TID 0000.0001)    35 @  0.000000000000000E+00              /* K =  1: 35 */
(PID.TID 0000.0001)     ;
(PID.TID 0000.0001) PTRACERS_EvPrRn =/* tracer conc. in Evap. & Rain */
(PID.TID 0000.0001)                 1.234567000000000E+05
(PID.TID 0000.0001)     ;
(PID.TID 0000.0001)  -----------------------------------
(PID.TID 0000.0001)  tracer number :    6
(PID.TID 0000.0001) PTRACERS_names = /* Tracer short name */
(PID.TID 0000.0001)               'BIO_1_001'
(PID.TID 0000.0001)     ;
(PID.TID 0000.0001) PTRACERS_long_names = /* Tracer long name */
(PID.TID 0000.0001)               ''
(PID.TID 0000.0001)     ;
(PID.TID 0000.0001) PTRACERS_ioLabel = /* tracer IO Label */
(PID.TID 0000.0001)               '06'
(PID.TID 0000.0001)     ;
(PID.TID 0000.0001) PTRACERS_advScheme = /* Advection Scheme */
(PID.TID 0000.0001)                      33
(PID.TID 0000.0001)     ;
(PID.TID 0000.0001) PTRACERS_SOM_Advection = /* tracer uses SOM advection scheme */
(PID.TID 0000.0001)                   F
(PID.TID 0000.0001)     ;
(PID.TID 0000.0001) PTRACERS_ImplVertAdv = /* implicit vert. advection flag */
(PID.TID 0000.0001)                   F
(PID.TID 0000.0001)     ;
(PID.TID 0000.0001) PTRACERS_diffKh = /* Laplacian Diffusivity */
(PID.TID 0000.0001)                 0.000000000000000E+00
(PID.TID 0000.0001)     ;
(PID.TID 0000.0001) PTRACERS_diffK4 = /* Biharmonic Diffusivity */
(PID.TID 0000.0001)                 0.000000000000000E+00
(PID.TID 0000.0001)     ;
(PID.TID 0000.0001) PTRACERS_diffKrNr = /* Vertical Diffusivity */
(PID.TID 0000.0001)    35 @  1.000000000000000E-05              /* K =  1: 35 */
(PID.TID 0000.0001)     ;
(PID.TID 0000.0001) PTRACERS_useGMRedi = /* apply GM-Redi */
(PID.TID 0000.0001)                   F
(PID.TID 0000.0001)     ;
(PID.TID 0000.0001) PTRACERS_useDWNSLP = /* apply DOWN-SLOPE Flow */
(PID.TID 0000.0001)                   F
(PID.TID 0000.0001)     ;
(PID.TID 0000.0001) PTRACERS_useKPP = /* apply KPP scheme */
(PID.TID 0000.0001)                   T
(PID.TID 0000.0001)     ;
(PID.TID 0000.0001) PTRACERS_ref = /* Reference vertical profile */
(PID.TID 0000.0001)    35 @  0.000000000000000E+00              /* K =  1: 35 */
(PID.TID 0000.0001)     ;
(PID.TID 0000.0001) PTRACERS_EvPrRn =/* tracer conc. in Evap. & Rain */
(PID.TID 0000.0001)                 1.234567000000000E+05
(PID.TID 0000.0001)     ;
(PID.TID 0000.0001)  -----------------------------------
(PID.TID 0000.0001)  tracer number :    7
(PID.TID 0000.0001) PTRACERS_names = /* Tracer short name */
(PID.TID 0000.0001)               'BIO_1_002'
(PID.TID 0000.0001)     ;
(PID.TID 0000.0001) PTRACERS_long_names = /* Tracer long name */
(PID.TID 0000.0001)               ''
(PID.TID 0000.0001)     ;
(PID.TID 0000.0001) PTRACERS_ioLabel = /* tracer IO Label */
(PID.TID 0000.0001)               '07'
(PID.TID 0000.0001)     ;
(PID.TID 0000.0001) PTRACERS_advScheme = /* Advection Scheme */
(PID.TID 0000.0001)                      33
(PID.TID 0000.0001)     ;
(PID.TID 0000.0001) PTRACERS_SOM_Advection = /* tracer uses SOM advection scheme */
(PID.TID 0000.0001)                   F
(PID.TID 0000.0001)     ;
(PID.TID 0000.0001) PTRACERS_ImplVertAdv = /* implicit vert. advection flag */
(PID.TID 0000.0001)                   F
(PID.TID 0000.0001)     ;
(PID.TID 0000.0001) PTRACERS_diffKh = /* Laplacian Diffusivity */
(PID.TID 0000.0001)                 0.000000000000000E+00
(PID.TID 0000.0001)     ;
(PID.TID 0000.0001) PTRACERS_diffK4 = /* Biharmonic Diffusivity */
(PID.TID 0000.0001)                 0.000000000000000E+00
(PID.TID 0000.0001)     ;
(PID.TID 0000.0001) PTRACERS_diffKrNr = /* Vertical Diffusivity */
(PID.TID 0000.0001)    35 @  1.000000000000000E-05              /* K =  1: 35 */
(PID.TID 0000.0001)     ;
(PID.TID 0000.0001) PTRACERS_useGMRedi = /* apply GM-Redi */
(PID.TID 0000.0001)                   F
(PID.TID 0000.0001)     ;
(PID.TID 0000.0001) PTRACERS_useDWNSLP = /* apply DOWN-SLOPE Flow */
(PID.TID 0000.0001)                   F
(PID.TID 0000.0001)     ;
(PID.TID 0000.0001) PTRACERS_useKPP = /* apply KPP scheme */
(PID.TID 0000.0001)                   T
(PID.TID 0000.0001)     ;
(PID.TID 0000.0001) PTRACERS_ref = /* Reference vertical profile */
(PID.TID 0000.0001)    35 @  0.000000000000000E+00              /* K =  1: 35 */
(PID.TID 0000.0001)     ;
(PID.TID 0000.0001) PTRACERS_EvPrRn =/* tracer conc. in Evap. & Rain */
(PID.TID 0000.0001)                 1.234567000000000E+05
(PID.TID 0000.0001)     ;
(PID.TID 0000.0001)  -----------------------------------
(PID.TID 0000.0001)  tracer number :    8
(PID.TID 0000.0001) PTRACERS_names = /* Tracer short name */
(PID.TID 0000.0001)               'BIO_1_003'
(PID.TID 0000.0001)     ;
(PID.TID 0000.0001) PTRACERS_long_names = /* Tracer long name */
(PID.TID 0000.0001)               ''
(PID.TID 0000.0001)     ;
(PID.TID 0000.0001) PTRACERS_ioLabel = /* tracer IO Label */
(PID.TID 0000.0001)               '08'
(PID.TID 0000.0001)     ;
(PID.TID 0000.0001) PTRACERS_advScheme = /* Advection Scheme */
(PID.TID 0000.0001)                      33
(PID.TID 0000.0001)     ;
(PID.TID 0000.0001) PTRACERS_SOM_Advection = /* tracer uses SOM advection scheme */
(PID.TID 0000.0001)                   F
(PID.TID 0000.0001)     ;
(PID.TID 0000.0001) PTRACERS_ImplVertAdv = /* implicit vert. advection flag */
(PID.TID 0000.0001)                   F
(PID.TID 0000.0001)     ;
(PID.TID 0000.0001) PTRACERS_diffKh = /* Laplacian Diffusivity */
(PID.TID 0000.0001)                 0.000000000000000E+00
(PID.TID 0000.0001)     ;
(PID.TID 0000.0001) PTRACERS_diffK4 = /* Biharmonic Diffusivity */
(PID.TID 0000.0001)                 0.000000000000000E+00
(PID.TID 0000.0001)     ;
(PID.TID 0000.0001) PTRACERS_diffKrNr = /* Vertical Diffusivity */
(PID.TID 0000.0001)    35 @  1.000000000000000E-05              /* K =  1: 35 */
(PID.TID 0000.0001)     ;
(PID.TID 0000.0001) PTRACERS_useGMRedi = /* apply GM-Redi */
(PID.TID 0000.0001)                   F
(PID.TID 0000.0001)     ;
(PID.TID 0000.0001) PTRACERS_useDWNSLP = /* apply DOWN-SLOPE Flow */
(PID.TID 0000.0001)                   F
(PID.TID 0000.0001)     ;
(PID.TID 0000.0001) PTRACERS_useKPP = /* apply KPP scheme */
(PID.TID 0000.0001)                   T
(PID.TID 0000.0001)     ;
(PID.TID 0000.0001) PTRACERS_ref = /* Reference vertical profile */
(PID.TID 0000.0001)    35 @  0.000000000000000E+00              /* K =  1: 35 */
(PID.TID 0000.0001)     ;
(PID.TID 0000.0001) PTRACERS_EvPrRn =/* tracer conc. in Evap. & Rain */
(PID.TID 0000.0001)                 1.234567000000000E+05
(PID.TID 0000.0001)     ;
(PID.TID 0000.0001)  -----------------------------------
(PID.TID 0000.0001)  tracer number :    9
(PID.TID 0000.0001) PTRACERS_names = /* Tracer short name */
(PID.TID 0000.0001)               'BIO_1_004'
(PID.TID 0000.0001)     ;
(PID.TID 0000.0001) PTRACERS_long_names = /* Tracer long name */
(PID.TID 0000.0001)               ''
(PID.TID 0000.0001)     ;
(PID.TID 0000.0001) PTRACERS_ioLabel = /* tracer IO Label */
(PID.TID 0000.0001)               '09'
(PID.TID 0000.0001)     ;
(PID.TID 0000.0001) PTRACERS_advScheme = /* Advection Scheme */
(PID.TID 0000.0001)                      33
(PID.TID 0000.0001)     ;
(PID.TID 0000.0001) PTRACERS_SOM_Advection = /* tracer uses SOM advection scheme */
(PID.TID 0000.0001)                   F
(PID.TID 0000.0001)     ;
(PID.TID 0000.0001) PTRACERS_ImplVertAdv = /* implicit vert. advection flag */
(PID.TID 0000.0001)                   F
(PID.TID 0000.0001)     ;
(PID.TID 0000.0001) PTRACERS_diffKh = /* Laplacian Diffusivity */
(PID.TID 0000.0001)                 0.000000000000000E+00
(PID.TID 0000.0001)     ;
(PID.TID 0000.0001) PTRACERS_diffK4 = /* Biharmonic Diffusivity */
(PID.TID 0000.0001)                 0.000000000000000E+00
(PID.TID 0000.0001)     ;
(PID.TID 0000.0001) PTRACERS_diffKrNr = /* Vertical Diffusivity */
(PID.TID 0000.0001)    35 @  1.000000000000000E-05              /* K =  1: 35 */
(PID.TID 0000.0001)     ;
(PID.TID 0000.0001) PTRACERS_useGMRedi = /* apply GM-Redi */
(PID.TID 0000.0001)                   F
(PID.TID 0000.0001)     ;
(PID.TID 0000.0001) PTRACERS_useDWNSLP = /* apply DOWN-SLOPE Flow */
(PID.TID 0000.0001)                   F
(PID.TID 0000.0001)     ;
(PID.TID 0000.0001) PTRACERS_useKPP = /* apply KPP scheme */
(PID.TID 0000.0001)                   T
(PID.TID 0000.0001)     ;
(PID.TID 0000.0001) PTRACERS_ref = /* Reference vertical profile */
(PID.TID 0000.0001)    35 @  0.000000000000000E+00              /* K =  1: 35 */
(PID.TID 0000.0001)     ;
(PID.TID 0000.0001) PTRACERS_EvPrRn =/* tracer conc. in Evap. & Rain */
(PID.TID 0000.0001)                 1.234567000000000E+05
(PID.TID 0000.0001)     ;
(PID.TID 0000.0001)  -----------------------------------
(PID.TID 0000.0001)  tracer number :   10
(PID.TID 0000.0001) PTRACERS_names = /* Tracer short name */
(PID.TID 0000.0001)               'BIO_1_005'
(PID.TID 0000.0001)     ;
(PID.TID 0000.0001) PTRACERS_long_names = /* Tracer long name */
(PID.TID 0000.0001)               ''
(PID.TID 0000.0001)     ;
(PID.TID 0000.0001) PTRACERS_ioLabel = /* tracer IO Label */
(PID.TID 0000.0001)               '10'
(PID.TID 0000.0001)     ;
(PID.TID 0000.0001) PTRACERS_advScheme = /* Advection Scheme */
(PID.TID 0000.0001)                      33
(PID.TID 0000.0001)     ;
(PID.TID 0000.0001) PTRACERS_SOM_Advection = /* tracer uses SOM advection scheme */
(PID.TID 0000.0001)                   F
(PID.TID 0000.0001)     ;
(PID.TID 0000.0001) PTRACERS_ImplVertAdv = /* implicit vert. advection flag */
(PID.TID 0000.0001)                   F
(PID.TID 0000.0001)     ;
(PID.TID 0000.0001) PTRACERS_diffKh = /* Laplacian Diffusivity */
(PID.TID 0000.0001)                 0.000000000000000E+00
(PID.TID 0000.0001)     ;
(PID.TID 0000.0001) PTRACERS_diffK4 = /* Biharmonic Diffusivity */
(PID.TID 0000.0001)                 0.000000000000000E+00
(PID.TID 0000.0001)     ;
(PID.TID 0000.0001) PTRACERS_diffKrNr = /* Vertical Diffusivity */
(PID.TID 0000.0001)    35 @  1.000000000000000E-05              /* K =  1: 35 */
(PID.TID 0000.0001)     ;
(PID.TID 0000.0001) PTRACERS_useGMRedi = /* apply GM-Redi */
(PID.TID 0000.0001)                   F
(PID.TID 0000.0001)     ;
(PID.TID 0000.0001) PTRACERS_useDWNSLP = /* apply DOWN-SLOPE Flow */
(PID.TID 0000.0001)                   F
(PID.TID 0000.0001)     ;
(PID.TID 0000.0001) PTRACERS_useKPP = /* apply KPP scheme */
(PID.TID 0000.0001)                   T
(PID.TID 0000.0001)     ;
(PID.TID 0000.0001) PTRACERS_ref = /* Reference vertical profile */
(PID.TID 0000.0001)    35 @  0.000000000000000E+00              /* K =  1: 35 */
(PID.TID 0000.0001)     ;
(PID.TID 0000.0001) PTRACERS_EvPrRn =/* tracer conc. in Evap. & Rain */
(PID.TID 0000.0001)                 1.234567000000000E+05
(PID.TID 0000.0001)     ;
(PID.TID 0000.0001)  -----------------------------------
(PID.TID 0000.0001)  tracer number :   11
(PID.TID 0000.0001) PTRACERS_names = /* Tracer short name */
(PID.TID 0000.0001)               'BIO_1_006'
(PID.TID 0000.0001)     ;
(PID.TID 0000.0001) PTRACERS_long_names = /* Tracer long name */
(PID.TID 0000.0001)               ''
(PID.TID 0000.0001)     ;
(PID.TID 0000.0001) PTRACERS_ioLabel = /* tracer IO Label */
(PID.TID 0000.0001)               '11'
(PID.TID 0000.0001)     ;
(PID.TID 0000.0001) PTRACERS_advScheme = /* Advection Scheme */
(PID.TID 0000.0001)                      33
(PID.TID 0000.0001)     ;
(PID.TID 0000.0001) PTRACERS_SOM_Advection = /* tracer uses SOM advection scheme */
(PID.TID 0000.0001)                   F
(PID.TID 0000.0001)     ;
(PID.TID 0000.0001) PTRACERS_ImplVertAdv = /* implicit vert. advection flag */
(PID.TID 0000.0001)                   F
(PID.TID 0000.0001)     ;
(PID.TID 0000.0001) PTRACERS_diffKh = /* Laplacian Diffusivity */
(PID.TID 0000.0001)                 0.000000000000000E+00
(PID.TID 0000.0001)     ;
(PID.TID 0000.0001) PTRACERS_diffK4 = /* Biharmonic Diffusivity */
(PID.TID 0000.0001)                 0.000000000000000E+00
(PID.TID 0000.0001)     ;
(PID.TID 0000.0001) PTRACERS_diffKrNr = /* Vertical Diffusivity */
(PID.TID 0000.0001)    35 @  1.000000000000000E-05              /* K =  1: 35 */
(PID.TID 0000.0001)     ;
(PID.TID 0000.0001) PTRACERS_useGMRedi = /* apply GM-Redi */
(PID.TID 0000.0001)                   F
(PID.TID 0000.0001)     ;
(PID.TID 0000.0001) PTRACERS_useDWNSLP = /* apply DOWN-SLOPE Flow */
(PID.TID 0000.0001)                   F
(PID.TID 0000.0001)     ;
(PID.TID 0000.0001) PTRACERS_useKPP = /* apply KPP scheme */
(PID.TID 0000.0001)                   T
(PID.TID 0000.0001)     ;
(PID.TID 0000.0001) PTRACERS_ref = /* Reference vertical profile */
(PID.TID 0000.0001)    35 @  0.000000000000000E+00              /* K =  1: 35 */
(PID.TID 0000.0001)     ;
(PID.TID 0000.0001) PTRACERS_EvPrRn =/* tracer conc. in Evap. & Rain */
(PID.TID 0000.0001)                 1.234567000000000E+05
(PID.TID 0000.0001)     ;
(PID.TID 0000.0001)  -----------------------------------
(PID.TID 0000.0001)  tracer number :   12
(PID.TID 0000.0001) PTRACERS_names = /* Tracer short name */
(PID.TID 0000.0001)               'BIO_1_007'
(PID.TID 0000.0001)     ;
(PID.TID 0000.0001) PTRACERS_long_names = /* Tracer long name */
(PID.TID 0000.0001)               ''
(PID.TID 0000.0001)     ;
(PID.TID 0000.0001) PTRACERS_ioLabel = /* tracer IO Label */
(PID.TID 0000.0001)               '12'
(PID.TID 0000.0001)     ;
(PID.TID 0000.0001) PTRACERS_advScheme = /* Advection Scheme */
(PID.TID 0000.0001)                      33
(PID.TID 0000.0001)     ;
(PID.TID 0000.0001) PTRACERS_SOM_Advection = /* tracer uses SOM advection scheme */
(PID.TID 0000.0001)                   F
(PID.TID 0000.0001)     ;
(PID.TID 0000.0001) PTRACERS_ImplVertAdv = /* implicit vert. advection flag */
(PID.TID 0000.0001)                   F
(PID.TID 0000.0001)     ;
(PID.TID 0000.0001) PTRACERS_diffKh = /* Laplacian Diffusivity */
(PID.TID 0000.0001)                 0.000000000000000E+00
(PID.TID 0000.0001)     ;
(PID.TID 0000.0001) PTRACERS_diffK4 = /* Biharmonic Diffusivity */
(PID.TID 0000.0001)                 0.000000000000000E+00
(PID.TID 0000.0001)     ;
(PID.TID 0000.0001) PTRACERS_diffKrNr = /* Vertical Diffusivity */
(PID.TID 0000.0001)    35 @  1.000000000000000E-05              /* K =  1: 35 */
(PID.TID 0000.0001)     ;
(PID.TID 0000.0001) PTRACERS_useGMRedi = /* apply GM-Redi */
(PID.TID 0000.0001)                   F
(PID.TID 0000.0001)     ;
(PID.TID 0000.0001) PTRACERS_useDWNSLP = /* apply DOWN-SLOPE Flow */
(PID.TID 0000.0001)                   F
(PID.TID 0000.0001)     ;
(PID.TID 0000.0001) PTRACERS_useKPP = /* apply KPP scheme */
(PID.TID 0000.0001)                   T
(PID.TID 0000.0001)     ;
(PID.TID 0000.0001) PTRACERS_ref = /* Reference vertical profile */
(PID.TID 0000.0001)    35 @  0.000000000000000E+00              /* K =  1: 35 */
(PID.TID 0000.0001)     ;
(PID.TID 0000.0001) PTRACERS_EvPrRn =/* tracer conc. in Evap. & Rain */
(PID.TID 0000.0001)                 1.234567000000000E+05
(PID.TID 0000.0001)     ;
(PID.TID 0000.0001)  -----------------------------------
(PID.TID 0000.0001)  tracer number :   13
(PID.TID 0000.0001) PTRACERS_names = /* Tracer short name */
(PID.TID 0000.0001)               'BIO_1_008'
(PID.TID 0000.0001)     ;
(PID.TID 0000.0001) PTRACERS_long_names = /* Tracer long name */
(PID.TID 0000.0001)               ''
(PID.TID 0000.0001)     ;
(PID.TID 0000.0001) PTRACERS_ioLabel = /* tracer IO Label */
(PID.TID 0000.0001)               '13'
(PID.TID 0000.0001)     ;
(PID.TID 0000.0001) PTRACERS_advScheme = /* Advection Scheme */
(PID.TID 0000.0001)                      33
(PID.TID 0000.0001)     ;
(PID.TID 0000.0001) PTRACERS_SOM_Advection = /* tracer uses SOM advection scheme */
(PID.TID 0000.0001)                   F
(PID.TID 0000.0001)     ;
(PID.TID 0000.0001) PTRACERS_ImplVertAdv = /* implicit vert. advection flag */
(PID.TID 0000.0001)                   F
(PID.TID 0000.0001)     ;
(PID.TID 0000.0001) PTRACERS_diffKh = /* Laplacian Diffusivity */
(PID.TID 0000.0001)                 0.000000000000000E+00
(PID.TID 0000.0001)     ;
(PID.TID 0000.0001) PTRACERS_diffK4 = /* Biharmonic Diffusivity */
(PID.TID 0000.0001)                 0.000000000000000E+00
(PID.TID 0000.0001)     ;
(PID.TID 0000.0001) PTRACERS_diffKrNr = /* Vertical Diffusivity */
(PID.TID 0000.0001)    35 @  1.000000000000000E-05              /* K =  1: 35 */
(PID.TID 0000.0001)     ;
(PID.TID 0000.0001) PTRACERS_useGMRedi = /* apply GM-Redi */
(PID.TID 0000.0001)                   F
(PID.TID 0000.0001)     ;
(PID.TID 0000.0001) PTRACERS_useDWNSLP = /* apply DOWN-SLOPE Flow */
(PID.TID 0000.0001)                   F
(PID.TID 0000.0001)     ;
(PID.TID 0000.0001) PTRACERS_useKPP = /* apply KPP scheme */
(PID.TID 0000.0001)                   T
(PID.TID 0000.0001)     ;
(PID.TID 0000.0001) PTRACERS_ref = /* Reference vertical profile */
(PID.TID 0000.0001)    35 @  0.000000000000000E+00              /* K =  1: 35 */
(PID.TID 0000.0001)     ;
(PID.TID 0000.0001) PTRACERS_EvPrRn =/* tracer conc. in Evap. & Rain */
(PID.TID 0000.0001)                 1.234567000000000E+05
(PID.TID 0000.0001)     ;
(PID.TID 0000.0001)  -----------------------------------
(PID.TID 0000.0001)  tracer number :   14
(PID.TID 0000.0001) PTRACERS_names = /* Tracer short name */
(PID.TID 0000.0001)               'BIO_1_009'
(PID.TID 0000.0001)     ;
(PID.TID 0000.0001) PTRACERS_long_names = /* Tracer long name */
(PID.TID 0000.0001)               ''
(PID.TID 0000.0001)     ;
(PID.TID 0000.0001) PTRACERS_ioLabel = /* tracer IO Label */
(PID.TID 0000.0001)               '14'
(PID.TID 0000.0001)     ;
(PID.TID 0000.0001) PTRACERS_advScheme = /* Advection Scheme */
(PID.TID 0000.0001)                      33
(PID.TID 0000.0001)     ;
(PID.TID 0000.0001) PTRACERS_SOM_Advection = /* tracer uses SOM advection scheme */
(PID.TID 0000.0001)                   F
(PID.TID 0000.0001)     ;
(PID.TID 0000.0001) PTRACERS_ImplVertAdv = /* implicit vert. advection flag */
(PID.TID 0000.0001)                   F
(PID.TID 0000.0001)     ;
(PID.TID 0000.0001) PTRACERS_diffKh = /* Laplacian Diffusivity */
(PID.TID 0000.0001)                 0.000000000000000E+00
(PID.TID 0000.0001)     ;
(PID.TID 0000.0001) PTRACERS_diffK4 = /* Biharmonic Diffusivity */
(PID.TID 0000.0001)                 0.000000000000000E+00
(PID.TID 0000.0001)     ;
(PID.TID 0000.0001) PTRACERS_diffKrNr = /* Vertical Diffusivity */
(PID.TID 0000.0001)    35 @  1.000000000000000E-05              /* K =  1: 35 */
(PID.TID 0000.0001)     ;
(PID.TID 0000.0001) PTRACERS_useGMRedi = /* apply GM-Redi */
(PID.TID 0000.0001)                   F
(PID.TID 0000.0001)     ;
(PID.TID 0000.0001) PTRACERS_useDWNSLP = /* apply DOWN-SLOPE Flow */
(PID.TID 0000.0001)                   F
(PID.TID 0000.0001)     ;
(PID.TID 0000.0001) PTRACERS_useKPP = /* apply KPP scheme */
(PID.TID 0000.0001)                   T
(PID.TID 0000.0001)     ;
(PID.TID 0000.0001) PTRACERS_ref = /* Reference vertical profile */
(PID.TID 0000.0001)    35 @  0.000000000000000E+00              /* K =  1: 35 */
(PID.TID 0000.0001)     ;
(PID.TID 0000.0001) PTRACERS_EvPrRn =/* tracer conc. in Evap. & Rain */
(PID.TID 0000.0001)                 1.234567000000000E+05
(PID.TID 0000.0001)     ;
(PID.TID 0000.0001)  -----------------------------------
(PID.TID 0000.0001)  tracer number :   15
(PID.TID 0000.0001) PTRACERS_names = /* Tracer short name */
(PID.TID 0000.0001)               'BIO_1_010'
(PID.TID 0000.0001)     ;
(PID.TID 0000.0001) PTRACERS_long_names = /* Tracer long name */
(PID.TID 0000.0001)               ''
(PID.TID 0000.0001)     ;
(PID.TID 0000.0001) PTRACERS_ioLabel = /* tracer IO Label */
(PID.TID 0000.0001)               '15'
(PID.TID 0000.0001)     ;
(PID.TID 0000.0001) PTRACERS_advScheme = /* Advection Scheme */
(PID.TID 0000.0001)                      33
(PID.TID 0000.0001)     ;
(PID.TID 0000.0001) PTRACERS_SOM_Advection = /* tracer uses SOM advection scheme */
(PID.TID 0000.0001)                   F
(PID.TID 0000.0001)     ;
(PID.TID 0000.0001) PTRACERS_ImplVertAdv = /* implicit vert. advection flag */
(PID.TID 0000.0001)                   F
(PID.TID 0000.0001)     ;
(PID.TID 0000.0001) PTRACERS_diffKh = /* Laplacian Diffusivity */
(PID.TID 0000.0001)                 0.000000000000000E+00
(PID.TID 0000.0001)     ;
(PID.TID 0000.0001) PTRACERS_diffK4 = /* Biharmonic Diffusivity */
(PID.TID 0000.0001)                 0.000000000000000E+00
(PID.TID 0000.0001)     ;
(PID.TID 0000.0001) PTRACERS_diffKrNr = /* Vertical Diffusivity */
(PID.TID 0000.0001)    35 @  1.000000000000000E-05              /* K =  1: 35 */
(PID.TID 0000.0001)     ;
(PID.TID 0000.0001) PTRACERS_useGMRedi = /* apply GM-Redi */
(PID.TID 0000.0001)                   F
(PID.TID 0000.0001)     ;
(PID.TID 0000.0001) PTRACERS_useDWNSLP = /* apply DOWN-SLOPE Flow */
(PID.TID 0000.0001)                   F
(PID.TID 0000.0001)     ;
(PID.TID 0000.0001) PTRACERS_useKPP = /* apply KPP scheme */
(PID.TID 0000.0001)                   T
(PID.TID 0000.0001)     ;
(PID.TID 0000.0001) PTRACERS_ref = /* Reference vertical profile */
(PID.TID 0000.0001)    35 @  0.000000000000000E+00              /* K =  1: 35 */
(PID.TID 0000.0001)     ;
(PID.TID 0000.0001) PTRACERS_EvPrRn =/* tracer conc. in Evap. & Rain */
(PID.TID 0000.0001)                 1.234567000000000E+05
(PID.TID 0000.0001)     ;
(PID.TID 0000.0001)  -----------------------------------
(PID.TID 0000.0001)  tracer number :   16
(PID.TID 0000.0001) PTRACERS_names = /* Tracer short name */
(PID.TID 0000.0001)               'BIO_1_011'
(PID.TID 0000.0001)     ;
(PID.TID 0000.0001) PTRACERS_long_names = /* Tracer long name */
(PID.TID 0000.0001)               ''
(PID.TID 0000.0001)     ;
(PID.TID 0000.0001) PTRACERS_ioLabel = /* tracer IO Label */
(PID.TID 0000.0001)               '16'
(PID.TID 0000.0001)     ;
(PID.TID 0000.0001) PTRACERS_advScheme = /* Advection Scheme */
(PID.TID 0000.0001)                      33
(PID.TID 0000.0001)     ;
(PID.TID 0000.0001) PTRACERS_SOM_Advection = /* tracer uses SOM advection scheme */
(PID.TID 0000.0001)                   F
(PID.TID 0000.0001)     ;
(PID.TID 0000.0001) PTRACERS_ImplVertAdv = /* implicit vert. advection flag */
(PID.TID 0000.0001)                   F
(PID.TID 0000.0001)     ;
(PID.TID 0000.0001) PTRACERS_diffKh = /* Laplacian Diffusivity */
(PID.TID 0000.0001)                 0.000000000000000E+00
(PID.TID 0000.0001)     ;
(PID.TID 0000.0001) PTRACERS_diffK4 = /* Biharmonic Diffusivity */
(PID.TID 0000.0001)                 0.000000000000000E+00
(PID.TID 0000.0001)     ;
(PID.TID 0000.0001) PTRACERS_diffKrNr = /* Vertical Diffusivity */
(PID.TID 0000.0001)    35 @  1.000000000000000E-05              /* K =  1: 35 */
(PID.TID 0000.0001)     ;
(PID.TID 0000.0001) PTRACERS_useGMRedi = /* apply GM-Redi */
(PID.TID 0000.0001)                   F
(PID.TID 0000.0001)     ;
(PID.TID 0000.0001) PTRACERS_useDWNSLP = /* apply DOWN-SLOPE Flow */
(PID.TID 0000.0001)                   F
(PID.TID 0000.0001)     ;
(PID.TID 0000.0001) PTRACERS_useKPP = /* apply KPP scheme */
(PID.TID 0000.0001)                   T
(PID.TID 0000.0001)     ;
(PID.TID 0000.0001) PTRACERS_ref = /* Reference vertical profile */
(PID.TID 0000.0001)    35 @  0.000000000000000E+00              /* K =  1: 35 */
(PID.TID 0000.0001)     ;
(PID.TID 0000.0001) PTRACERS_EvPrRn =/* tracer conc. in Evap. & Rain */
(PID.TID 0000.0001)                 1.234567000000000E+05
(PID.TID 0000.0001)     ;
(PID.TID 0000.0001)  -----------------------------------
(PID.TID 0000.0001)  tracer number :   17
(PID.TID 0000.0001) PTRACERS_names = /* Tracer short name */
(PID.TID 0000.0001)               'BIO_1_012'
(PID.TID 0000.0001)     ;
(PID.TID 0000.0001) PTRACERS_long_names = /* Tracer long name */
(PID.TID 0000.0001)               ''
(PID.TID 0000.0001)     ;
(PID.TID 0000.0001) PTRACERS_ioLabel = /* tracer IO Label */
(PID.TID 0000.0001)               '17'
(PID.TID 0000.0001)     ;
(PID.TID 0000.0001) PTRACERS_advScheme = /* Advection Scheme */
(PID.TID 0000.0001)                      33
(PID.TID 0000.0001)     ;
(PID.TID 0000.0001) PTRACERS_SOM_Advection = /* tracer uses SOM advection scheme */
(PID.TID 0000.0001)                   F
(PID.TID 0000.0001)     ;
(PID.TID 0000.0001) PTRACERS_ImplVertAdv = /* implicit vert. advection flag */
(PID.TID 0000.0001)                   F
(PID.TID 0000.0001)     ;
(PID.TID 0000.0001) PTRACERS_diffKh = /* Laplacian Diffusivity */
(PID.TID 0000.0001)                 0.000000000000000E+00
(PID.TID 0000.0001)     ;
(PID.TID 0000.0001) PTRACERS_diffK4 = /* Biharmonic Diffusivity */
(PID.TID 0000.0001)                 0.000000000000000E+00
(PID.TID 0000.0001)     ;
(PID.TID 0000.0001) PTRACERS_diffKrNr = /* Vertical Diffusivity */
(PID.TID 0000.0001)    35 @  1.000000000000000E-05              /* K =  1: 35 */
(PID.TID 0000.0001)     ;
(PID.TID 0000.0001) PTRACERS_useGMRedi = /* apply GM-Redi */
(PID.TID 0000.0001)                   F
(PID.TID 0000.0001)     ;
(PID.TID 0000.0001) PTRACERS_useDWNSLP = /* apply DOWN-SLOPE Flow */
(PID.TID 0000.0001)                   F
(PID.TID 0000.0001)     ;
(PID.TID 0000.0001) PTRACERS_useKPP = /* apply KPP scheme */
(PID.TID 0000.0001)                   T
(PID.TID 0000.0001)     ;
(PID.TID 0000.0001) PTRACERS_ref = /* Reference vertical profile */
(PID.TID 0000.0001)    35 @  0.000000000000000E+00              /* K =  1: 35 */
(PID.TID 0000.0001)     ;
(PID.TID 0000.0001) PTRACERS_EvPrRn =/* tracer conc. in Evap. & Rain */
(PID.TID 0000.0001)                 1.234567000000000E+05
(PID.TID 0000.0001)     ;
(PID.TID 0000.0001)  -----------------------------------
(PID.TID 0000.0001)  tracer number :   18
(PID.TID 0000.0001) PTRACERS_names = /* Tracer short name */
(PID.TID 0000.0001)               'BIO_1_013'
(PID.TID 0000.0001)     ;
(PID.TID 0000.0001) PTRACERS_long_names = /* Tracer long name */
(PID.TID 0000.0001)               ''
(PID.TID 0000.0001)     ;
(PID.TID 0000.0001) PTRACERS_ioLabel = /* tracer IO Label */
(PID.TID 0000.0001)               '18'
(PID.TID 0000.0001)     ;
(PID.TID 0000.0001) PTRACERS_advScheme = /* Advection Scheme */
(PID.TID 0000.0001)                      33
(PID.TID 0000.0001)     ;
(PID.TID 0000.0001) PTRACERS_SOM_Advection = /* tracer uses SOM advection scheme */
(PID.TID 0000.0001)                   F
(PID.TID 0000.0001)     ;
(PID.TID 0000.0001) PTRACERS_ImplVertAdv = /* implicit vert. advection flag */
(PID.TID 0000.0001)                   F
(PID.TID 0000.0001)     ;
(PID.TID 0000.0001) PTRACERS_diffKh = /* Laplacian Diffusivity */
(PID.TID 0000.0001)                 0.000000000000000E+00
(PID.TID 0000.0001)     ;
(PID.TID 0000.0001) PTRACERS_diffK4 = /* Biharmonic Diffusivity */
(PID.TID 0000.0001)                 0.000000000000000E+00
(PID.TID 0000.0001)     ;
(PID.TID 0000.0001) PTRACERS_diffKrNr = /* Vertical Diffusivity */
(PID.TID 0000.0001)    35 @  1.000000000000000E-05              /* K =  1: 35 */
(PID.TID 0000.0001)     ;
(PID.TID 0000.0001) PTRACERS_useGMRedi = /* apply GM-Redi */
(PID.TID 0000.0001)                   F
(PID.TID 0000.0001)     ;
(PID.TID 0000.0001) PTRACERS_useDWNSLP = /* apply DOWN-SLOPE Flow */
(PID.TID 0000.0001)                   F
(PID.TID 0000.0001)     ;
(PID.TID 0000.0001) PTRACERS_useKPP = /* apply KPP scheme */
(PID.TID 0000.0001)                   T
(PID.TID 0000.0001)     ;
(PID.TID 0000.0001) PTRACERS_ref = /* Reference vertical profile */
(PID.TID 0000.0001)    35 @  0.000000000000000E+00              /* K =  1: 35 */
(PID.TID 0000.0001)     ;
(PID.TID 0000.0001) PTRACERS_EvPrRn =/* tracer conc. in Evap. & Rain */
(PID.TID 0000.0001)                 1.234567000000000E+05
(PID.TID 0000.0001)     ;
(PID.TID 0000.0001)  -----------------------------------
(PID.TID 0000.0001)  tracer number :   19
(PID.TID 0000.0001) PTRACERS_names = /* Tracer short name */
(PID.TID 0000.0001)               'BIO_1_014'
(PID.TID 0000.0001)     ;
(PID.TID 0000.0001) PTRACERS_long_names = /* Tracer long name */
(PID.TID 0000.0001)               ''
(PID.TID 0000.0001)     ;
(PID.TID 0000.0001) PTRACERS_ioLabel = /* tracer IO Label */
(PID.TID 0000.0001)               '19'
(PID.TID 0000.0001)     ;
(PID.TID 0000.0001) PTRACERS_advScheme = /* Advection Scheme */
(PID.TID 0000.0001)                      33
(PID.TID 0000.0001)     ;
(PID.TID 0000.0001) PTRACERS_SOM_Advection = /* tracer uses SOM advection scheme */
(PID.TID 0000.0001)                   F
(PID.TID 0000.0001)     ;
(PID.TID 0000.0001) PTRACERS_ImplVertAdv = /* implicit vert. advection flag */
(PID.TID 0000.0001)                   F
(PID.TID 0000.0001)     ;
(PID.TID 0000.0001) PTRACERS_diffKh = /* Laplacian Diffusivity */
(PID.TID 0000.0001)                 0.000000000000000E+00
(PID.TID 0000.0001)     ;
(PID.TID 0000.0001) PTRACERS_diffK4 = /* Biharmonic Diffusivity */
(PID.TID 0000.0001)                 0.000000000000000E+00
(PID.TID 0000.0001)     ;
(PID.TID 0000.0001) PTRACERS_diffKrNr = /* Vertical Diffusivity */
(PID.TID 0000.0001)    35 @  1.000000000000000E-05              /* K =  1: 35 */
(PID.TID 0000.0001)     ;
(PID.TID 0000.0001) PTRACERS_useGMRedi = /* apply GM-Redi */
(PID.TID 0000.0001)                   F
(PID.TID 0000.0001)     ;
(PID.TID 0000.0001) PTRACERS_useDWNSLP = /* apply DOWN-SLOPE Flow */
(PID.TID 0000.0001)                   F
(PID.TID 0000.0001)     ;
(PID.TID 0000.0001) PTRACERS_useKPP = /* apply KPP scheme */
(PID.TID 0000.0001)                   T
(PID.TID 0000.0001)     ;
(PID.TID 0000.0001) PTRACERS_ref = /* Reference vertical profile */
(PID.TID 0000.0001)    35 @  0.000000000000000E+00              /* K =  1: 35 */
(PID.TID 0000.0001)     ;
(PID.TID 0000.0001) PTRACERS_EvPrRn =/* tracer conc. in Evap. & Rain */
(PID.TID 0000.0001)                 1.234567000000000E+05
(PID.TID 0000.0001)     ;
(PID.TID 0000.0001)  -----------------------------------
(PID.TID 0000.0001)  tracer number :   20
(PID.TID 0000.0001) PTRACERS_names = /* Tracer short name */
(PID.TID 0000.0001)               'BIO_1_015'
(PID.TID 0000.0001)     ;
(PID.TID 0000.0001) PTRACERS_long_names = /* Tracer long name */
(PID.TID 0000.0001)               ''
(PID.TID 0000.0001)     ;
(PID.TID 0000.0001) PTRACERS_ioLabel = /* tracer IO Label */
(PID.TID 0000.0001)               '20'
(PID.TID 0000.0001)     ;
(PID.TID 0000.0001) PTRACERS_advScheme = /* Advection Scheme */
(PID.TID 0000.0001)                      33
(PID.TID 0000.0001)     ;
(PID.TID 0000.0001) PTRACERS_SOM_Advection = /* tracer uses SOM advection scheme */
(PID.TID 0000.0001)                   F
(PID.TID 0000.0001)     ;
(PID.TID 0000.0001) PTRACERS_ImplVertAdv = /* implicit vert. advection flag */
(PID.TID 0000.0001)                   F
(PID.TID 0000.0001)     ;
(PID.TID 0000.0001) PTRACERS_diffKh = /* Laplacian Diffusivity */
(PID.TID 0000.0001)                 0.000000000000000E+00
(PID.TID 0000.0001)     ;
(PID.TID 0000.0001) PTRACERS_diffK4 = /* Biharmonic Diffusivity */
(PID.TID 0000.0001)                 0.000000000000000E+00
(PID.TID 0000.0001)     ;
(PID.TID 0000.0001) PTRACERS_diffKrNr = /* Vertical Diffusivity */
(PID.TID 0000.0001)    35 @  1.000000000000000E-05              /* K =  1: 35 */
(PID.TID 0000.0001)     ;
(PID.TID 0000.0001) PTRACERS_useGMRedi = /* apply GM-Redi */
(PID.TID 0000.0001)                   F
(PID.TID 0000.0001)     ;
(PID.TID 0000.0001) PTRACERS_useDWNSLP = /* apply DOWN-SLOPE Flow */
(PID.TID 0000.0001)                   F
(PID.TID 0000.0001)     ;
(PID.TID 0000.0001) PTRACERS_useKPP = /* apply KPP scheme */
(PID.TID 0000.0001)                   T
(PID.TID 0000.0001)     ;
(PID.TID 0000.0001) PTRACERS_ref = /* Reference vertical profile */
(PID.TID 0000.0001)    35 @  0.000000000000000E+00              /* K =  1: 35 */
(PID.TID 0000.0001)     ;
(PID.TID 0000.0001) PTRACERS_EvPrRn =/* tracer conc. in Evap. & Rain */
(PID.TID 0000.0001)                 1.234567000000000E+05
(PID.TID 0000.0001)     ;
(PID.TID 0000.0001)  -----------------------------------
(PID.TID 0000.0001)  tracer number :   21
(PID.TID 0000.0001) PTRACERS_names = /* Tracer short name */
(PID.TID 0000.0001)               'BIO_1_016'
(PID.TID 0000.0001)     ;
(PID.TID 0000.0001) PTRACERS_long_names = /* Tracer long name */
(PID.TID 0000.0001)               ''
(PID.TID 0000.0001)     ;
(PID.TID 0000.0001) PTRACERS_ioLabel = /* tracer IO Label */
(PID.TID 0000.0001)               '21'
(PID.TID 0000.0001)     ;
(PID.TID 0000.0001) PTRACERS_advScheme = /* Advection Scheme */
(PID.TID 0000.0001)                      33
(PID.TID 0000.0001)     ;
(PID.TID 0000.0001) PTRACERS_SOM_Advection = /* tracer uses SOM advection scheme */
(PID.TID 0000.0001)                   F
(PID.TID 0000.0001)     ;
(PID.TID 0000.0001) PTRACERS_ImplVertAdv = /* implicit vert. advection flag */
(PID.TID 0000.0001)                   F
(PID.TID 0000.0001)     ;
(PID.TID 0000.0001) PTRACERS_diffKh = /* Laplacian Diffusivity */
(PID.TID 0000.0001)                 0.000000000000000E+00
(PID.TID 0000.0001)     ;
(PID.TID 0000.0001) PTRACERS_diffK4 = /* Biharmonic Diffusivity */
(PID.TID 0000.0001)                 0.000000000000000E+00
(PID.TID 0000.0001)     ;
(PID.TID 0000.0001) PTRACERS_diffKrNr = /* Vertical Diffusivity */
(PID.TID 0000.0001)    35 @  1.000000000000000E-05              /* K =  1: 35 */
(PID.TID 0000.0001)     ;
(PID.TID 0000.0001) PTRACERS_useGMRedi = /* apply GM-Redi */
(PID.TID 0000.0001)                   F
(PID.TID 0000.0001)     ;
(PID.TID 0000.0001) PTRACERS_useDWNSLP = /* apply DOWN-SLOPE Flow */
(PID.TID 0000.0001)                   F
(PID.TID 0000.0001)     ;
(PID.TID 0000.0001) PTRACERS_useKPP = /* apply KPP scheme */
(PID.TID 0000.0001)                   T
(PID.TID 0000.0001)     ;
(PID.TID 0000.0001) PTRACERS_ref = /* Reference vertical profile */
(PID.TID 0000.0001)    35 @  0.000000000000000E+00              /* K =  1: 35 */
(PID.TID 0000.0001)     ;
(PID.TID 0000.0001) PTRACERS_EvPrRn =/* tracer conc. in Evap. & Rain */
(PID.TID 0000.0001)                 1.234567000000000E+05
(PID.TID 0000.0001)     ;
(PID.TID 0000.0001)  -----------------------------------
(PID.TID 0000.0001)  tracer number :   22
(PID.TID 0000.0001) PTRACERS_names = /* Tracer short name */
(PID.TID 0000.0001)               'BIO_2_001'
(PID.TID 0000.0001)     ;
(PID.TID 0000.0001) PTRACERS_long_names = /* Tracer long name */
(PID.TID 0000.0001)               ''
(PID.TID 0000.0001)     ;
(PID.TID 0000.0001) PTRACERS_ioLabel = /* tracer IO Label */
(PID.TID 0000.0001)               '22'
(PID.TID 0000.0001)     ;
(PID.TID 0000.0001) PTRACERS_advScheme = /* Advection Scheme */
(PID.TID 0000.0001)                      33
(PID.TID 0000.0001)     ;
(PID.TID 0000.0001) PTRACERS_SOM_Advection = /* tracer uses SOM advection scheme */
(PID.TID 0000.0001)                   F
(PID.TID 0000.0001)     ;
(PID.TID 0000.0001) PTRACERS_ImplVertAdv = /* implicit vert. advection flag */
(PID.TID 0000.0001)                   F
(PID.TID 0000.0001)     ;
(PID.TID 0000.0001) PTRACERS_diffKh = /* Laplacian Diffusivity */
(PID.TID 0000.0001)                 0.000000000000000E+00
(PID.TID 0000.0001)     ;
(PID.TID 0000.0001) PTRACERS_diffK4 = /* Biharmonic Diffusivity */
(PID.TID 0000.0001)                 0.000000000000000E+00
(PID.TID 0000.0001)     ;
(PID.TID 0000.0001) PTRACERS_diffKrNr = /* Vertical Diffusivity */
(PID.TID 0000.0001)    35 @  1.000000000000000E-05              /* K =  1: 35 */
(PID.TID 0000.0001)     ;
(PID.TID 0000.0001) PTRACERS_useGMRedi = /* apply GM-Redi */
(PID.TID 0000.0001)                   F
(PID.TID 0000.0001)     ;
(PID.TID 0000.0001) PTRACERS_useDWNSLP = /* apply DOWN-SLOPE Flow */
(PID.TID 0000.0001)                   F
(PID.TID 0000.0001)     ;
(PID.TID 0000.0001) PTRACERS_useKPP = /* apply KPP scheme */
(PID.TID 0000.0001)                   T
(PID.TID 0000.0001)     ;
(PID.TID 0000.0001) PTRACERS_ref = /* Reference vertical profile */
(PID.TID 0000.0001)    35 @  0.000000000000000E+00              /* K =  1: 35 */
(PID.TID 0000.0001)     ;
(PID.TID 0000.0001) PTRACERS_EvPrRn =/* tracer conc. in Evap. & Rain */
(PID.TID 0000.0001)                 1.234567000000000E+05
(PID.TID 0000.0001)     ;
(PID.TID 0000.0001)  -----------------------------------
(PID.TID 0000.0001)  tracer number :   23
(PID.TID 0000.0001) PTRACERS_names = /* Tracer short name */
(PID.TID 0000.0001)               'BIO_2_002'
(PID.TID 0000.0001)     ;
(PID.TID 0000.0001) PTRACERS_long_names = /* Tracer long name */
(PID.TID 0000.0001)               ''
(PID.TID 0000.0001)     ;
(PID.TID 0000.0001) PTRACERS_ioLabel = /* tracer IO Label */
(PID.TID 0000.0001)               '23'
(PID.TID 0000.0001)     ;
(PID.TID 0000.0001) PTRACERS_advScheme = /* Advection Scheme */
(PID.TID 0000.0001)                      33
(PID.TID 0000.0001)     ;
(PID.TID 0000.0001) PTRACERS_SOM_Advection = /* tracer uses SOM advection scheme */
(PID.TID 0000.0001)                   F
(PID.TID 0000.0001)     ;
(PID.TID 0000.0001) PTRACERS_ImplVertAdv = /* implicit vert. advection flag */
(PID.TID 0000.0001)                   F
(PID.TID 0000.0001)     ;
(PID.TID 0000.0001) PTRACERS_diffKh = /* Laplacian Diffusivity */
(PID.TID 0000.0001)                 0.000000000000000E+00
(PID.TID 0000.0001)     ;
(PID.TID 0000.0001) PTRACERS_diffK4 = /* Biharmonic Diffusivity */
(PID.TID 0000.0001)                 0.000000000000000E+00
(PID.TID 0000.0001)     ;
(PID.TID 0000.0001) PTRACERS_diffKrNr = /* Vertical Diffusivity */
(PID.TID 0000.0001)    35 @  1.000000000000000E-05              /* K =  1: 35 */
(PID.TID 0000.0001)     ;
(PID.TID 0000.0001) PTRACERS_useGMRedi = /* apply GM-Redi */
(PID.TID 0000.0001)                   F
(PID.TID 0000.0001)     ;
(PID.TID 0000.0001) PTRACERS_useDWNSLP = /* apply DOWN-SLOPE Flow */
(PID.TID 0000.0001)                   F
(PID.TID 0000.0001)     ;
(PID.TID 0000.0001) PTRACERS_useKPP = /* apply KPP scheme */
(PID.TID 0000.0001)                   T
(PID.TID 0000.0001)     ;
(PID.TID 0000.0001) PTRACERS_ref = /* Reference vertical profile */
(PID.TID 0000.0001)    35 @  0.000000000000000E+00              /* K =  1: 35 */
(PID.TID 0000.0001)     ;
(PID.TID 0000.0001) PTRACERS_EvPrRn =/* tracer conc. in Evap. & Rain */
(PID.TID 0000.0001)                 1.234567000000000E+05
(PID.TID 0000.0001)     ;
(PID.TID 0000.0001)  -----------------------------------
(PID.TID 0000.0001)  tracer number :   24
(PID.TID 0000.0001) PTRACERS_names = /* Tracer short name */
(PID.TID 0000.0001)               'BIO_2_003'
(PID.TID 0000.0001)     ;
(PID.TID 0000.0001) PTRACERS_long_names = /* Tracer long name */
(PID.TID 0000.0001)               ''
(PID.TID 0000.0001)     ;
(PID.TID 0000.0001) PTRACERS_ioLabel = /* tracer IO Label */
(PID.TID 0000.0001)               '24'
(PID.TID 0000.0001)     ;
(PID.TID 0000.0001) PTRACERS_advScheme = /* Advection Scheme */
(PID.TID 0000.0001)                      33
(PID.TID 0000.0001)     ;
(PID.TID 0000.0001) PTRACERS_SOM_Advection = /* tracer uses SOM advection scheme */
(PID.TID 0000.0001)                   F
(PID.TID 0000.0001)     ;
(PID.TID 0000.0001) PTRACERS_ImplVertAdv = /* implicit vert. advection flag */
(PID.TID 0000.0001)                   F
(PID.TID 0000.0001)     ;
(PID.TID 0000.0001) PTRACERS_diffKh = /* Laplacian Diffusivity */
(PID.TID 0000.0001)                 0.000000000000000E+00
(PID.TID 0000.0001)     ;
(PID.TID 0000.0001) PTRACERS_diffK4 = /* Biharmonic Diffusivity */
(PID.TID 0000.0001)                 0.000000000000000E+00
(PID.TID 0000.0001)     ;
(PID.TID 0000.0001) PTRACERS_diffKrNr = /* Vertical Diffusivity */
(PID.TID 0000.0001)    35 @  1.000000000000000E-05              /* K =  1: 35 */
(PID.TID 0000.0001)     ;
(PID.TID 0000.0001) PTRACERS_useGMRedi = /* apply GM-Redi */
(PID.TID 0000.0001)                   F
(PID.TID 0000.0001)     ;
(PID.TID 0000.0001) PTRACERS_useDWNSLP = /* apply DOWN-SLOPE Flow */
(PID.TID 0000.0001)                   F
(PID.TID 0000.0001)     ;
(PID.TID 0000.0001) PTRACERS_useKPP = /* apply KPP scheme */
(PID.TID 0000.0001)                   T
(PID.TID 0000.0001)     ;
(PID.TID 0000.0001) PTRACERS_ref = /* Reference vertical profile */
(PID.TID 0000.0001)    35 @  0.000000000000000E+00              /* K =  1: 35 */
(PID.TID 0000.0001)     ;
(PID.TID 0000.0001) PTRACERS_EvPrRn =/* tracer conc. in Evap. & Rain */
(PID.TID 0000.0001)                 1.234567000000000E+05
(PID.TID 0000.0001)     ;
(PID.TID 0000.0001)  -----------------------------------
(PID.TID 0000.0001)  tracer number :   25
(PID.TID 0000.0001) PTRACERS_names = /* Tracer short name */
(PID.TID 0000.0001)               'BIO_2_004'
(PID.TID 0000.0001)     ;
(PID.TID 0000.0001) PTRACERS_long_names = /* Tracer long name */
(PID.TID 0000.0001)               ''
(PID.TID 0000.0001)     ;
(PID.TID 0000.0001) PTRACERS_ioLabel = /* tracer IO Label */
(PID.TID 0000.0001)               '25'
(PID.TID 0000.0001)     ;
(PID.TID 0000.0001) PTRACERS_advScheme = /* Advection Scheme */
(PID.TID 0000.0001)                      33
(PID.TID 0000.0001)     ;
(PID.TID 0000.0001) PTRACERS_SOM_Advection = /* tracer uses SOM advection scheme */
(PID.TID 0000.0001)                   F
(PID.TID 0000.0001)     ;
(PID.TID 0000.0001) PTRACERS_ImplVertAdv = /* implicit vert. advection flag */
(PID.TID 0000.0001)                   F
(PID.TID 0000.0001)     ;
(PID.TID 0000.0001) PTRACERS_diffKh = /* Laplacian Diffusivity */
(PID.TID 0000.0001)                 0.000000000000000E+00
(PID.TID 0000.0001)     ;
(PID.TID 0000.0001) PTRACERS_diffK4 = /* Biharmonic Diffusivity */
(PID.TID 0000.0001)                 0.000000000000000E+00
(PID.TID 0000.0001)     ;
(PID.TID 0000.0001) PTRACERS_diffKrNr = /* Vertical Diffusivity */
(PID.TID 0000.0001)    35 @  1.000000000000000E-05              /* K =  1: 35 */
(PID.TID 0000.0001)     ;
(PID.TID 0000.0001) PTRACERS_useGMRedi = /* apply GM-Redi */
(PID.TID 0000.0001)                   F
(PID.TID 0000.0001)     ;
(PID.TID 0000.0001) PTRACERS_useDWNSLP = /* apply DOWN-SLOPE Flow */
(PID.TID 0000.0001)                   F
(PID.TID 0000.0001)     ;
(PID.TID 0000.0001) PTRACERS_useKPP = /* apply KPP scheme */
(PID.TID 0000.0001)                   T
(PID.TID 0000.0001)     ;
(PID.TID 0000.0001) PTRACERS_ref = /* Reference vertical profile */
(PID.TID 0000.0001)    35 @  0.000000000000000E+00              /* K =  1: 35 */
(PID.TID 0000.0001)     ;
(PID.TID 0000.0001) PTRACERS_EvPrRn =/* tracer conc. in Evap. & Rain */
(PID.TID 0000.0001)                 1.234567000000000E+05
(PID.TID 0000.0001)     ;
(PID.TID 0000.0001)  -----------------------------------
(PID.TID 0000.0001)  tracer number :   26
(PID.TID 0000.0001) PTRACERS_names = /* Tracer short name */
(PID.TID 0000.0001)               'BIO_2_005'
(PID.TID 0000.0001)     ;
(PID.TID 0000.0001) PTRACERS_long_names = /* Tracer long name */
(PID.TID 0000.0001)               ''
(PID.TID 0000.0001)     ;
(PID.TID 0000.0001) PTRACERS_ioLabel = /* tracer IO Label */
(PID.TID 0000.0001)               '26'
(PID.TID 0000.0001)     ;
(PID.TID 0000.0001) PTRACERS_advScheme = /* Advection Scheme */
(PID.TID 0000.0001)                      33
(PID.TID 0000.0001)     ;
(PID.TID 0000.0001) PTRACERS_SOM_Advection = /* tracer uses SOM advection scheme */
(PID.TID 0000.0001)                   F
(PID.TID 0000.0001)     ;
(PID.TID 0000.0001) PTRACERS_ImplVertAdv = /* implicit vert. advection flag */
(PID.TID 0000.0001)                   F
(PID.TID 0000.0001)     ;
(PID.TID 0000.0001) PTRACERS_diffKh = /* Laplacian Diffusivity */
(PID.TID 0000.0001)                 0.000000000000000E+00
(PID.TID 0000.0001)     ;
(PID.TID 0000.0001) PTRACERS_diffK4 = /* Biharmonic Diffusivity */
(PID.TID 0000.0001)                 0.000000000000000E+00
(PID.TID 0000.0001)     ;
(PID.TID 0000.0001) PTRACERS_diffKrNr = /* Vertical Diffusivity */
(PID.TID 0000.0001)    35 @  1.000000000000000E-05              /* K =  1: 35 */
(PID.TID 0000.0001)     ;
(PID.TID 0000.0001) PTRACERS_useGMRedi = /* apply GM-Redi */
(PID.TID 0000.0001)                   F
(PID.TID 0000.0001)     ;
(PID.TID 0000.0001) PTRACERS_useDWNSLP = /* apply DOWN-SLOPE Flow */
(PID.TID 0000.0001)                   F
(PID.TID 0000.0001)     ;
(PID.TID 0000.0001) PTRACERS_useKPP = /* apply KPP scheme */
(PID.TID 0000.0001)                   T
(PID.TID 0000.0001)     ;
(PID.TID 0000.0001) PTRACERS_ref = /* Reference vertical profile */
(PID.TID 0000.0001)    35 @  0.000000000000000E+00              /* K =  1: 35 */
(PID.TID 0000.0001)     ;
(PID.TID 0000.0001) PTRACERS_EvPrRn =/* tracer conc. in Evap. & Rain */
(PID.TID 0000.0001)                 1.234567000000000E+05
(PID.TID 0000.0001)     ;
(PID.TID 0000.0001)  -----------------------------------
(PID.TID 0000.0001)  tracer number :   27
(PID.TID 0000.0001) PTRACERS_names = /* Tracer short name */
(PID.TID 0000.0001)               'BIO_2_006'
(PID.TID 0000.0001)     ;
(PID.TID 0000.0001) PTRACERS_long_names = /* Tracer long name */
(PID.TID 0000.0001)               ''
(PID.TID 0000.0001)     ;
(PID.TID 0000.0001) PTRACERS_ioLabel = /* tracer IO Label */
(PID.TID 0000.0001)               '27'
(PID.TID 0000.0001)     ;
(PID.TID 0000.0001) PTRACERS_advScheme = /* Advection Scheme */
(PID.TID 0000.0001)                      33
(PID.TID 0000.0001)     ;
(PID.TID 0000.0001) PTRACERS_SOM_Advection = /* tracer uses SOM advection scheme */
(PID.TID 0000.0001)                   F
(PID.TID 0000.0001)     ;
(PID.TID 0000.0001) PTRACERS_ImplVertAdv = /* implicit vert. advection flag */
(PID.TID 0000.0001)                   F
(PID.TID 0000.0001)     ;
(PID.TID 0000.0001) PTRACERS_diffKh = /* Laplacian Diffusivity */
(PID.TID 0000.0001)                 0.000000000000000E+00
(PID.TID 0000.0001)     ;
(PID.TID 0000.0001) PTRACERS_diffK4 = /* Biharmonic Diffusivity */
(PID.TID 0000.0001)                 0.000000000000000E+00
(PID.TID 0000.0001)     ;
(PID.TID 0000.0001) PTRACERS_diffKrNr = /* Vertical Diffusivity */
(PID.TID 0000.0001)    35 @  1.000000000000000E-05              /* K =  1: 35 */
(PID.TID 0000.0001)     ;
(PID.TID 0000.0001) PTRACERS_useGMRedi = /* apply GM-Redi */
(PID.TID 0000.0001)                   F
(PID.TID 0000.0001)     ;
(PID.TID 0000.0001) PTRACERS_useDWNSLP = /* apply DOWN-SLOPE Flow */
(PID.TID 0000.0001)                   F
(PID.TID 0000.0001)     ;
(PID.TID 0000.0001) PTRACERS_useKPP = /* apply KPP scheme */
(PID.TID 0000.0001)                   T
(PID.TID 0000.0001)     ;
(PID.TID 0000.0001) PTRACERS_ref = /* Reference vertical profile */
(PID.TID 0000.0001)    35 @  0.000000000000000E+00              /* K =  1: 35 */
(PID.TID 0000.0001)     ;
(PID.TID 0000.0001) PTRACERS_EvPrRn =/* tracer conc. in Evap. & Rain */
(PID.TID 0000.0001)                 1.234567000000000E+05
(PID.TID 0000.0001)     ;
(PID.TID 0000.0001)  -----------------------------------
(PID.TID 0000.0001)  tracer number :   28
(PID.TID 0000.0001) PTRACERS_names = /* Tracer short name */
(PID.TID 0000.0001)               'BIO_2_007'
(PID.TID 0000.0001)     ;
(PID.TID 0000.0001) PTRACERS_long_names = /* Tracer long name */
(PID.TID 0000.0001)               ''
(PID.TID 0000.0001)     ;
(PID.TID 0000.0001) PTRACERS_ioLabel = /* tracer IO Label */
(PID.TID 0000.0001)               '28'
(PID.TID 0000.0001)     ;
(PID.TID 0000.0001) PTRACERS_advScheme = /* Advection Scheme */
(PID.TID 0000.0001)                      33
(PID.TID 0000.0001)     ;
(PID.TID 0000.0001) PTRACERS_SOM_Advection = /* tracer uses SOM advection scheme */
(PID.TID 0000.0001)                   F
(PID.TID 0000.0001)     ;
(PID.TID 0000.0001) PTRACERS_ImplVertAdv = /* implicit vert. advection flag */
(PID.TID 0000.0001)                   F
(PID.TID 0000.0001)     ;
(PID.TID 0000.0001) PTRACERS_diffKh = /* Laplacian Diffusivity */
(PID.TID 0000.0001)                 0.000000000000000E+00
(PID.TID 0000.0001)     ;
(PID.TID 0000.0001) PTRACERS_diffK4 = /* Biharmonic Diffusivity */
(PID.TID 0000.0001)                 0.000000000000000E+00
(PID.TID 0000.0001)     ;
(PID.TID 0000.0001) PTRACERS_diffKrNr = /* Vertical Diffusivity */
(PID.TID 0000.0001)    35 @  1.000000000000000E-05              /* K =  1: 35 */
(PID.TID 0000.0001)     ;
(PID.TID 0000.0001) PTRACERS_useGMRedi = /* apply GM-Redi */
(PID.TID 0000.0001)                   F
(PID.TID 0000.0001)     ;
(PID.TID 0000.0001) PTRACERS_useDWNSLP = /* apply DOWN-SLOPE Flow */
(PID.TID 0000.0001)                   F
(PID.TID 0000.0001)     ;
(PID.TID 0000.0001) PTRACERS_useKPP = /* apply KPP scheme */
(PID.TID 0000.0001)                   T
(PID.TID 0000.0001)     ;
(PID.TID 0000.0001) PTRACERS_ref = /* Reference vertical profile */
(PID.TID 0000.0001)    35 @  0.000000000000000E+00              /* K =  1: 35 */
(PID.TID 0000.0001)     ;
(PID.TID 0000.0001) PTRACERS_EvPrRn =/* tracer conc. in Evap. & Rain */
(PID.TID 0000.0001)                 1.234567000000000E+05
(PID.TID 0000.0001)     ;
(PID.TID 0000.0001)  -----------------------------------
(PID.TID 0000.0001)  tracer number :   29
(PID.TID 0000.0001) PTRACERS_names = /* Tracer short name */
(PID.TID 0000.0001)               'BIO_2_008'
(PID.TID 0000.0001)     ;
(PID.TID 0000.0001) PTRACERS_long_names = /* Tracer long name */
(PID.TID 0000.0001)               ''
(PID.TID 0000.0001)     ;
(PID.TID 0000.0001) PTRACERS_ioLabel = /* tracer IO Label */
(PID.TID 0000.0001)               '29'
(PID.TID 0000.0001)     ;
(PID.TID 0000.0001) PTRACERS_advScheme = /* Advection Scheme */
(PID.TID 0000.0001)                      33
(PID.TID 0000.0001)     ;
(PID.TID 0000.0001) PTRACERS_SOM_Advection = /* tracer uses SOM advection scheme */
(PID.TID 0000.0001)                   F
(PID.TID 0000.0001)     ;
(PID.TID 0000.0001) PTRACERS_ImplVertAdv = /* implicit vert. advection flag */
(PID.TID 0000.0001)                   F
(PID.TID 0000.0001)     ;
(PID.TID 0000.0001) PTRACERS_diffKh = /* Laplacian Diffusivity */
(PID.TID 0000.0001)                 0.000000000000000E+00
(PID.TID 0000.0001)     ;
(PID.TID 0000.0001) PTRACERS_diffK4 = /* Biharmonic Diffusivity */
(PID.TID 0000.0001)                 0.000000000000000E+00
(PID.TID 0000.0001)     ;
(PID.TID 0000.0001) PTRACERS_diffKrNr = /* Vertical Diffusivity */
(PID.TID 0000.0001)    35 @  1.000000000000000E-05              /* K =  1: 35 */
(PID.TID 0000.0001)     ;
(PID.TID 0000.0001) PTRACERS_useGMRedi = /* apply GM-Redi */
(PID.TID 0000.0001)                   F
(PID.TID 0000.0001)     ;
(PID.TID 0000.0001) PTRACERS_useDWNSLP = /* apply DOWN-SLOPE Flow */
(PID.TID 0000.0001)                   F
(PID.TID 0000.0001)     ;
(PID.TID 0000.0001) PTRACERS_useKPP = /* apply KPP scheme */
(PID.TID 0000.0001)                   T
(PID.TID 0000.0001)     ;
(PID.TID 0000.0001) PTRACERS_ref = /* Reference vertical profile */
(PID.TID 0000.0001)    35 @  0.000000000000000E+00              /* K =  1: 35 */
(PID.TID 0000.0001)     ;
(PID.TID 0000.0001) PTRACERS_EvPrRn =/* tracer conc. in Evap. & Rain */
(PID.TID 0000.0001)                 1.234567000000000E+05
(PID.TID 0000.0001)     ;
(PID.TID 0000.0001)  -----------------------------------
(PID.TID 0000.0001)  tracer number :   30
(PID.TID 0000.0001) PTRACERS_names = /* Tracer short name */
(PID.TID 0000.0001)               'BIO_2_009'
(PID.TID 0000.0001)     ;
(PID.TID 0000.0001) PTRACERS_long_names = /* Tracer long name */
(PID.TID 0000.0001)               ''
(PID.TID 0000.0001)     ;
(PID.TID 0000.0001) PTRACERS_ioLabel = /* tracer IO Label */
(PID.TID 0000.0001)               '30'
(PID.TID 0000.0001)     ;
(PID.TID 0000.0001) PTRACERS_advScheme = /* Advection Scheme */
(PID.TID 0000.0001)                      33
(PID.TID 0000.0001)     ;
(PID.TID 0000.0001) PTRACERS_SOM_Advection = /* tracer uses SOM advection scheme */
(PID.TID 0000.0001)                   F
(PID.TID 0000.0001)     ;
(PID.TID 0000.0001) PTRACERS_ImplVertAdv = /* implicit vert. advection flag */
(PID.TID 0000.0001)                   F
(PID.TID 0000.0001)     ;
(PID.TID 0000.0001) PTRACERS_diffKh = /* Laplacian Diffusivity */
(PID.TID 0000.0001)                 0.000000000000000E+00
(PID.TID 0000.0001)     ;
(PID.TID 0000.0001) PTRACERS_diffK4 = /* Biharmonic Diffusivity */
(PID.TID 0000.0001)                 0.000000000000000E+00
(PID.TID 0000.0001)     ;
(PID.TID 0000.0001) PTRACERS_diffKrNr = /* Vertical Diffusivity */
(PID.TID 0000.0001)    35 @  1.000000000000000E-05              /* K =  1: 35 */
(PID.TID 0000.0001)     ;
(PID.TID 0000.0001) PTRACERS_useGMRedi = /* apply GM-Redi */
(PID.TID 0000.0001)                   F
(PID.TID 0000.0001)     ;
(PID.TID 0000.0001) PTRACERS_useDWNSLP = /* apply DOWN-SLOPE Flow */
(PID.TID 0000.0001)                   F
(PID.TID 0000.0001)     ;
(PID.TID 0000.0001) PTRACERS_useKPP = /* apply KPP scheme */
(PID.TID 0000.0001)                   T
(PID.TID 0000.0001)     ;
(PID.TID 0000.0001) PTRACERS_ref = /* Reference vertical profile */
(PID.TID 0000.0001)    35 @  0.000000000000000E+00              /* K =  1: 35 */
(PID.TID 0000.0001)     ;
(PID.TID 0000.0001) PTRACERS_EvPrRn =/* tracer conc. in Evap. & Rain */
(PID.TID 0000.0001)                 1.234567000000000E+05
(PID.TID 0000.0001)     ;
(PID.TID 0000.0001)  -----------------------------------
(PID.TID 0000.0001)  tracer number :   31
(PID.TID 0000.0001) PTRACERS_names = /* Tracer short name */
(PID.TID 0000.0001)               'BIO_2_010'
(PID.TID 0000.0001)     ;
(PID.TID 0000.0001) PTRACERS_long_names = /* Tracer long name */
(PID.TID 0000.0001)               ''
(PID.TID 0000.0001)     ;
(PID.TID 0000.0001) PTRACERS_ioLabel = /* tracer IO Label */
(PID.TID 0000.0001)               '31'
(PID.TID 0000.0001)     ;
(PID.TID 0000.0001) PTRACERS_advScheme = /* Advection Scheme */
(PID.TID 0000.0001)                      33
(PID.TID 0000.0001)     ;
(PID.TID 0000.0001) PTRACERS_SOM_Advection = /* tracer uses SOM advection scheme */
(PID.TID 0000.0001)                   F
(PID.TID 0000.0001)     ;
(PID.TID 0000.0001) PTRACERS_ImplVertAdv = /* implicit vert. advection flag */
(PID.TID 0000.0001)                   F
(PID.TID 0000.0001)     ;
(PID.TID 0000.0001) PTRACERS_diffKh = /* Laplacian Diffusivity */
(PID.TID 0000.0001)                 0.000000000000000E+00
(PID.TID 0000.0001)     ;
(PID.TID 0000.0001) PTRACERS_diffK4 = /* Biharmonic Diffusivity */
(PID.TID 0000.0001)                 0.000000000000000E+00
(PID.TID 0000.0001)     ;
(PID.TID 0000.0001) PTRACERS_diffKrNr = /* Vertical Diffusivity */
(PID.TID 0000.0001)    35 @  1.000000000000000E-05              /* K =  1: 35 */
(PID.TID 0000.0001)     ;
(PID.TID 0000.0001) PTRACERS_useGMRedi = /* apply GM-Redi */
(PID.TID 0000.0001)                   F
(PID.TID 0000.0001)     ;
(PID.TID 0000.0001) PTRACERS_useDWNSLP = /* apply DOWN-SLOPE Flow */
(PID.TID 0000.0001)                   F
(PID.TID 0000.0001)     ;
(PID.TID 0000.0001) PTRACERS_useKPP = /* apply KPP scheme */
(PID.TID 0000.0001)                   T
(PID.TID 0000.0001)     ;
(PID.TID 0000.0001) PTRACERS_ref = /* Reference vertical profile */
(PID.TID 0000.0001)    35 @  0.000000000000000E+00              /* K =  1: 35 */
(PID.TID 0000.0001)     ;
(PID.TID 0000.0001) PTRACERS_EvPrRn =/* tracer conc. in Evap. & Rain */
(PID.TID 0000.0001)                 1.234567000000000E+05
(PID.TID 0000.0001)     ;
(PID.TID 0000.0001)  -----------------------------------
(PID.TID 0000.0001)  tracer number :   32
(PID.TID 0000.0001) PTRACERS_names = /* Tracer short name */
(PID.TID 0000.0001)               'BIO_2_011'
(PID.TID 0000.0001)     ;
(PID.TID 0000.0001) PTRACERS_long_names = /* Tracer long name */
(PID.TID 0000.0001)               ''
(PID.TID 0000.0001)     ;
(PID.TID 0000.0001) PTRACERS_ioLabel = /* tracer IO Label */
(PID.TID 0000.0001)               '32'
(PID.TID 0000.0001)     ;
(PID.TID 0000.0001) PTRACERS_advScheme = /* Advection Scheme */
(PID.TID 0000.0001)                      33
(PID.TID 0000.0001)     ;
(PID.TID 0000.0001) PTRACERS_SOM_Advection = /* tracer uses SOM advection scheme */
(PID.TID 0000.0001)                   F
(PID.TID 0000.0001)     ;
(PID.TID 0000.0001) PTRACERS_ImplVertAdv = /* implicit vert. advection flag */
(PID.TID 0000.0001)                   F
(PID.TID 0000.0001)     ;
(PID.TID 0000.0001) PTRACERS_diffKh = /* Laplacian Diffusivity */
(PID.TID 0000.0001)                 0.000000000000000E+00
(PID.TID 0000.0001)     ;
(PID.TID 0000.0001) PTRACERS_diffK4 = /* Biharmonic Diffusivity */
(PID.TID 0000.0001)                 0.000000000000000E+00
(PID.TID 0000.0001)     ;
(PID.TID 0000.0001) PTRACERS_diffKrNr = /* Vertical Diffusivity */
(PID.TID 0000.0001)    35 @  1.000000000000000E-05              /* K =  1: 35 */
(PID.TID 0000.0001)     ;
(PID.TID 0000.0001) PTRACERS_useGMRedi = /* apply GM-Redi */
(PID.TID 0000.0001)                   F
(PID.TID 0000.0001)     ;
(PID.TID 0000.0001) PTRACERS_useDWNSLP = /* apply DOWN-SLOPE Flow */
(PID.TID 0000.0001)                   F
(PID.TID 0000.0001)     ;
(PID.TID 0000.0001) PTRACERS_useKPP = /* apply KPP scheme */
(PID.TID 0000.0001)                   T
(PID.TID 0000.0001)     ;
(PID.TID 0000.0001) PTRACERS_ref = /* Reference vertical profile */
(PID.TID 0000.0001)    35 @  0.000000000000000E+00              /* K =  1: 35 */
(PID.TID 0000.0001)     ;
(PID.TID 0000.0001) PTRACERS_EvPrRn =/* tracer conc. in Evap. & Rain */
(PID.TID 0000.0001)                 1.234567000000000E+05
(PID.TID 0000.0001)     ;
(PID.TID 0000.0001)  -----------------------------------
(PID.TID 0000.0001)  tracer number :   33
(PID.TID 0000.0001) PTRACERS_names = /* Tracer short name */
(PID.TID 0000.0001)               'BIO_2_012'
(PID.TID 0000.0001)     ;
(PID.TID 0000.0001) PTRACERS_long_names = /* Tracer long name */
(PID.TID 0000.0001)               ''
(PID.TID 0000.0001)     ;
(PID.TID 0000.0001) PTRACERS_ioLabel = /* tracer IO Label */
(PID.TID 0000.0001)               '33'
(PID.TID 0000.0001)     ;
(PID.TID 0000.0001) PTRACERS_advScheme = /* Advection Scheme */
(PID.TID 0000.0001)                      33
(PID.TID 0000.0001)     ;
(PID.TID 0000.0001) PTRACERS_SOM_Advection = /* tracer uses SOM advection scheme */
(PID.TID 0000.0001)                   F
(PID.TID 0000.0001)     ;
(PID.TID 0000.0001) PTRACERS_ImplVertAdv = /* implicit vert. advection flag */
(PID.TID 0000.0001)                   F
(PID.TID 0000.0001)     ;
(PID.TID 0000.0001) PTRACERS_diffKh = /* Laplacian Diffusivity */
(PID.TID 0000.0001)                 0.000000000000000E+00
(PID.TID 0000.0001)     ;
(PID.TID 0000.0001) PTRACERS_diffK4 = /* Biharmonic Diffusivity */
(PID.TID 0000.0001)                 0.000000000000000E+00
(PID.TID 0000.0001)     ;
(PID.TID 0000.0001) PTRACERS_diffKrNr = /* Vertical Diffusivity */
(PID.TID 0000.0001)    35 @  1.000000000000000E-05              /* K =  1: 35 */
(PID.TID 0000.0001)     ;
(PID.TID 0000.0001) PTRACERS_useGMRedi = /* apply GM-Redi */
(PID.TID 0000.0001)                   F
(PID.TID 0000.0001)     ;
(PID.TID 0000.0001) PTRACERS_useDWNSLP = /* apply DOWN-SLOPE Flow */
(PID.TID 0000.0001)                   F
(PID.TID 0000.0001)     ;
(PID.TID 0000.0001) PTRACERS_useKPP = /* apply KPP scheme */
(PID.TID 0000.0001)                   T
(PID.TID 0000.0001)     ;
(PID.TID 0000.0001) PTRACERS_ref = /* Reference vertical profile */
(PID.TID 0000.0001)    35 @  0.000000000000000E+00              /* K =  1: 35 */
(PID.TID 0000.0001)     ;
(PID.TID 0000.0001) PTRACERS_EvPrRn =/* tracer conc. in Evap. & Rain */
(PID.TID 0000.0001)                 1.234567000000000E+05
(PID.TID 0000.0001)     ;
(PID.TID 0000.0001)  -----------------------------------
(PID.TID 0000.0001)  tracer number :   34
(PID.TID 0000.0001) PTRACERS_names = /* Tracer short name */
(PID.TID 0000.0001)               'BIO_2_013'
(PID.TID 0000.0001)     ;
(PID.TID 0000.0001) PTRACERS_long_names = /* Tracer long name */
(PID.TID 0000.0001)               ''
(PID.TID 0000.0001)     ;
(PID.TID 0000.0001) PTRACERS_ioLabel = /* tracer IO Label */
(PID.TID 0000.0001)               '34'
(PID.TID 0000.0001)     ;
(PID.TID 0000.0001) PTRACERS_advScheme = /* Advection Scheme */
(PID.TID 0000.0001)                      33
(PID.TID 0000.0001)     ;
(PID.TID 0000.0001) PTRACERS_SOM_Advection = /* tracer uses SOM advection scheme */
(PID.TID 0000.0001)                   F
(PID.TID 0000.0001)     ;
(PID.TID 0000.0001) PTRACERS_ImplVertAdv = /* implicit vert. advection flag */
(PID.TID 0000.0001)                   F
(PID.TID 0000.0001)     ;
(PID.TID 0000.0001) PTRACERS_diffKh = /* Laplacian Diffusivity */
(PID.TID 0000.0001)                 0.000000000000000E+00
(PID.TID 0000.0001)     ;
(PID.TID 0000.0001) PTRACERS_diffK4 = /* Biharmonic Diffusivity */
(PID.TID 0000.0001)                 0.000000000000000E+00
(PID.TID 0000.0001)     ;
(PID.TID 0000.0001) PTRACERS_diffKrNr = /* Vertical Diffusivity */
(PID.TID 0000.0001)    35 @  1.000000000000000E-05              /* K =  1: 35 */
(PID.TID 0000.0001)     ;
(PID.TID 0000.0001) PTRACERS_useGMRedi = /* apply GM-Redi */
(PID.TID 0000.0001)                   F
(PID.TID 0000.0001)     ;
(PID.TID 0000.0001) PTRACERS_useDWNSLP = /* apply DOWN-SLOPE Flow */
(PID.TID 0000.0001)                   F
(PID.TID 0000.0001)     ;
(PID.TID 0000.0001) PTRACERS_useKPP = /* apply KPP scheme */
(PID.TID 0000.0001)                   T
(PID.TID 0000.0001)     ;
(PID.TID 0000.0001) PTRACERS_ref = /* Reference vertical profile */
(PID.TID 0000.0001)    35 @  0.000000000000000E+00              /* K =  1: 35 */
(PID.TID 0000.0001)     ;
(PID.TID 0000.0001) PTRACERS_EvPrRn =/* tracer conc. in Evap. & Rain */
(PID.TID 0000.0001)                 1.234567000000000E+05
(PID.TID 0000.0001)     ;
(PID.TID 0000.0001)  -----------------------------------
(PID.TID 0000.0001)  tracer number :   35
(PID.TID 0000.0001) PTRACERS_names = /* Tracer short name */
(PID.TID 0000.0001)               'BIO_2_014'
(PID.TID 0000.0001)     ;
(PID.TID 0000.0001) PTRACERS_long_names = /* Tracer long name */
(PID.TID 0000.0001)               ''
(PID.TID 0000.0001)     ;
(PID.TID 0000.0001) PTRACERS_ioLabel = /* tracer IO Label */
(PID.TID 0000.0001)               '35'
(PID.TID 0000.0001)     ;
(PID.TID 0000.0001) PTRACERS_advScheme = /* Advection Scheme */
(PID.TID 0000.0001)                      33
(PID.TID 0000.0001)     ;
(PID.TID 0000.0001) PTRACERS_SOM_Advection = /* tracer uses SOM advection scheme */
(PID.TID 0000.0001)                   F
(PID.TID 0000.0001)     ;
(PID.TID 0000.0001) PTRACERS_ImplVertAdv = /* implicit vert. advection flag */
(PID.TID 0000.0001)                   F
(PID.TID 0000.0001)     ;
(PID.TID 0000.0001) PTRACERS_diffKh = /* Laplacian Diffusivity */
(PID.TID 0000.0001)                 0.000000000000000E+00
(PID.TID 0000.0001)     ;
(PID.TID 0000.0001) PTRACERS_diffK4 = /* Biharmonic Diffusivity */
(PID.TID 0000.0001)                 0.000000000000000E+00
(PID.TID 0000.0001)     ;
(PID.TID 0000.0001) PTRACERS_diffKrNr = /* Vertical Diffusivity */
(PID.TID 0000.0001)    35 @  1.000000000000000E-05              /* K =  1: 35 */
(PID.TID 0000.0001)     ;
(PID.TID 0000.0001) PTRACERS_useGMRedi = /* apply GM-Redi */
(PID.TID 0000.0001)                   F
(PID.TID 0000.0001)     ;
(PID.TID 0000.0001) PTRACERS_useDWNSLP = /* apply DOWN-SLOPE Flow */
(PID.TID 0000.0001)                   F
(PID.TID 0000.0001)     ;
(PID.TID 0000.0001) PTRACERS_useKPP = /* apply KPP scheme */
(PID.TID 0000.0001)                   T
(PID.TID 0000.0001)     ;
(PID.TID 0000.0001) PTRACERS_ref = /* Reference vertical profile */
(PID.TID 0000.0001)    35 @  0.000000000000000E+00              /* K =  1: 35 */
(PID.TID 0000.0001)     ;
(PID.TID 0000.0001) PTRACERS_EvPrRn =/* tracer conc. in Evap. & Rain */
(PID.TID 0000.0001)                 1.234567000000000E+05
(PID.TID 0000.0001)     ;
(PID.TID 0000.0001)  -----------------------------------
(PID.TID 0000.0001)  tracer number :   36
(PID.TID 0000.0001) PTRACERS_names = /* Tracer short name */
(PID.TID 0000.0001)               'BIO_2_015'
(PID.TID 0000.0001)     ;
(PID.TID 0000.0001) PTRACERS_long_names = /* Tracer long name */
(PID.TID 0000.0001)               ''
(PID.TID 0000.0001)     ;
(PID.TID 0000.0001) PTRACERS_ioLabel = /* tracer IO Label */
(PID.TID 0000.0001)               '36'
(PID.TID 0000.0001)     ;
(PID.TID 0000.0001) PTRACERS_advScheme = /* Advection Scheme */
(PID.TID 0000.0001)                      33
(PID.TID 0000.0001)     ;
(PID.TID 0000.0001) PTRACERS_SOM_Advection = /* tracer uses SOM advection scheme */
(PID.TID 0000.0001)                   F
(PID.TID 0000.0001)     ;
(PID.TID 0000.0001) PTRACERS_ImplVertAdv = /* implicit vert. advection flag */
(PID.TID 0000.0001)                   F
(PID.TID 0000.0001)     ;
(PID.TID 0000.0001) PTRACERS_diffKh = /* Laplacian Diffusivity */
(PID.TID 0000.0001)                 0.000000000000000E+00
(PID.TID 0000.0001)     ;
(PID.TID 0000.0001) PTRACERS_diffK4 = /* Biharmonic Diffusivity */
(PID.TID 0000.0001)                 0.000000000000000E+00
(PID.TID 0000.0001)     ;
(PID.TID 0000.0001) PTRACERS_diffKrNr = /* Vertical Diffusivity */
(PID.TID 0000.0001)    35 @  1.000000000000000E-05              /* K =  1: 35 */
(PID.TID 0000.0001)     ;
(PID.TID 0000.0001) PTRACERS_useGMRedi = /* apply GM-Redi */
(PID.TID 0000.0001)                   F
(PID.TID 0000.0001)     ;
(PID.TID 0000.0001) PTRACERS_useDWNSLP = /* apply DOWN-SLOPE Flow */
(PID.TID 0000.0001)                   F
(PID.TID 0000.0001)     ;
(PID.TID 0000.0001) PTRACERS_useKPP = /* apply KPP scheme */
(PID.TID 0000.0001)                   T
(PID.TID 0000.0001)     ;
(PID.TID 0000.0001) PTRACERS_ref = /* Reference vertical profile */
(PID.TID 0000.0001)    35 @  0.000000000000000E+00              /* K =  1: 35 */
(PID.TID 0000.0001)     ;
(PID.TID 0000.0001) PTRACERS_EvPrRn =/* tracer conc. in Evap. & Rain */
(PID.TID 0000.0001)                 1.234567000000000E+05
(PID.TID 0000.0001)     ;
(PID.TID 0000.0001)  -----------------------------------
(PID.TID 0000.0001)  tracer number :   37
(PID.TID 0000.0001) PTRACERS_names = /* Tracer short name */
(PID.TID 0000.0001)               'BIO_2_016'
(PID.TID 0000.0001)     ;
(PID.TID 0000.0001) PTRACERS_long_names = /* Tracer long name */
(PID.TID 0000.0001)               ''
(PID.TID 0000.0001)     ;
(PID.TID 0000.0001) PTRACERS_ioLabel = /* tracer IO Label */
(PID.TID 0000.0001)               '37'
(PID.TID 0000.0001)     ;
(PID.TID 0000.0001) PTRACERS_advScheme = /* Advection Scheme */
(PID.TID 0000.0001)                      33
(PID.TID 0000.0001)     ;
(PID.TID 0000.0001) PTRACERS_SOM_Advection = /* tracer uses SOM advection scheme */
(PID.TID 0000.0001)                   F
(PID.TID 0000.0001)     ;
(PID.TID 0000.0001) PTRACERS_ImplVertAdv = /* implicit vert. advection flag */
(PID.TID 0000.0001)                   F
(PID.TID 0000.0001)     ;
(PID.TID 0000.0001) PTRACERS_diffKh = /* Laplacian Diffusivity */
(PID.TID 0000.0001)                 0.000000000000000E+00
(PID.TID 0000.0001)     ;
(PID.TID 0000.0001) PTRACERS_diffK4 = /* Biharmonic Diffusivity */
(PID.TID 0000.0001)                 0.000000000000000E+00
(PID.TID 0000.0001)     ;
(PID.TID 0000.0001) PTRACERS_diffKrNr = /* Vertical Diffusivity */
(PID.TID 0000.0001)    35 @  1.000000000000000E-05              /* K =  1: 35 */
(PID.TID 0000.0001)     ;
(PID.TID 0000.0001) PTRACERS_useGMRedi = /* apply GM-Redi */
(PID.TID 0000.0001)                   F
(PID.TID 0000.0001)     ;
(PID.TID 0000.0001) PTRACERS_useDWNSLP = /* apply DOWN-SLOPE Flow */
(PID.TID 0000.0001)                   F
(PID.TID 0000.0001)     ;
(PID.TID 0000.0001) PTRACERS_useKPP = /* apply KPP scheme */
(PID.TID 0000.0001)                   T
(PID.TID 0000.0001)     ;
(PID.TID 0000.0001) PTRACERS_ref = /* Reference vertical profile */
(PID.TID 0000.0001)    35 @  0.000000000000000E+00              /* K =  1: 35 */
(PID.TID 0000.0001)     ;
(PID.TID 0000.0001) PTRACERS_EvPrRn =/* tracer conc. in Evap. & Rain */
(PID.TID 0000.0001)                 1.234567000000000E+05
(PID.TID 0000.0001)     ;
(PID.TID 0000.0001)  -----------------------------------
(PID.TID 0000.0001)  tracer number :   38
(PID.TID 0000.0001) PTRACERS_names = /* Tracer short name */
(PID.TID 0000.0001)               'BIO_3_001'
(PID.TID 0000.0001)     ;
(PID.TID 0000.0001) PTRACERS_long_names = /* Tracer long name */
(PID.TID 0000.0001)               ''
(PID.TID 0000.0001)     ;
(PID.TID 0000.0001) PTRACERS_ioLabel = /* tracer IO Label */
(PID.TID 0000.0001)               '38'
(PID.TID 0000.0001)     ;
(PID.TID 0000.0001) PTRACERS_advScheme = /* Advection Scheme */
(PID.TID 0000.0001)                      33
(PID.TID 0000.0001)     ;
(PID.TID 0000.0001) PTRACERS_SOM_Advection = /* tracer uses SOM advection scheme */
(PID.TID 0000.0001)                   F
(PID.TID 0000.0001)     ;
(PID.TID 0000.0001) PTRACERS_ImplVertAdv = /* implicit vert. advection flag */
(PID.TID 0000.0001)                   F
(PID.TID 0000.0001)     ;
(PID.TID 0000.0001) PTRACERS_diffKh = /* Laplacian Diffusivity */
(PID.TID 0000.0001)                 0.000000000000000E+00
(PID.TID 0000.0001)     ;
(PID.TID 0000.0001) PTRACERS_diffK4 = /* Biharmonic Diffusivity */
(PID.TID 0000.0001)                 0.000000000000000E+00
(PID.TID 0000.0001)     ;
(PID.TID 0000.0001) PTRACERS_diffKrNr = /* Vertical Diffusivity */
(PID.TID 0000.0001)    35 @  1.000000000000000E-05              /* K =  1: 35 */
(PID.TID 0000.0001)     ;
(PID.TID 0000.0001) PTRACERS_useGMRedi = /* apply GM-Redi */
(PID.TID 0000.0001)                   F
(PID.TID 0000.0001)     ;
(PID.TID 0000.0001) PTRACERS_useDWNSLP = /* apply DOWN-SLOPE Flow */
(PID.TID 0000.0001)                   F
(PID.TID 0000.0001)     ;
(PID.TID 0000.0001) PTRACERS_useKPP = /* apply KPP scheme */
(PID.TID 0000.0001)                   T
(PID.TID 0000.0001)     ;
(PID.TID 0000.0001) PTRACERS_ref = /* Reference vertical profile */
(PID.TID 0000.0001)    35 @  0.000000000000000E+00              /* K =  1: 35 */
(PID.TID 0000.0001)     ;
(PID.TID 0000.0001) PTRACERS_EvPrRn =/* tracer conc. in Evap. & Rain */
(PID.TID 0000.0001)                 1.234567000000000E+05
(PID.TID 0000.0001)     ;
(PID.TID 0000.0001)  -----------------------------------
(PID.TID 0000.0001)  tracer number :   39
(PID.TID 0000.0001) PTRACERS_names = /* Tracer short name */
(PID.TID 0000.0001)               'BIO_3_002'
(PID.TID 0000.0001)     ;
(PID.TID 0000.0001) PTRACERS_long_names = /* Tracer long name */
(PID.TID 0000.0001)               ''
(PID.TID 0000.0001)     ;
(PID.TID 0000.0001) PTRACERS_ioLabel = /* tracer IO Label */
(PID.TID 0000.0001)               '39'
(PID.TID 0000.0001)     ;
(PID.TID 0000.0001) PTRACERS_advScheme = /* Advection Scheme */
(PID.TID 0000.0001)                      33
(PID.TID 0000.0001)     ;
(PID.TID 0000.0001) PTRACERS_SOM_Advection = /* tracer uses SOM advection scheme */
(PID.TID 0000.0001)                   F
(PID.TID 0000.0001)     ;
(PID.TID 0000.0001) PTRACERS_ImplVertAdv = /* implicit vert. advection flag */
(PID.TID 0000.0001)                   F
(PID.TID 0000.0001)     ;
(PID.TID 0000.0001) PTRACERS_diffKh = /* Laplacian Diffusivity */
(PID.TID 0000.0001)                 0.000000000000000E+00
(PID.TID 0000.0001)     ;
(PID.TID 0000.0001) PTRACERS_diffK4 = /* Biharmonic Diffusivity */
(PID.TID 0000.0001)                 0.000000000000000E+00
(PID.TID 0000.0001)     ;
(PID.TID 0000.0001) PTRACERS_diffKrNr = /* Vertical Diffusivity */
(PID.TID 0000.0001)    35 @  1.000000000000000E-05              /* K =  1: 35 */
(PID.TID 0000.0001)     ;
(PID.TID 0000.0001) PTRACERS_useGMRedi = /* apply GM-Redi */
(PID.TID 0000.0001)                   F
(PID.TID 0000.0001)     ;
(PID.TID 0000.0001) PTRACERS_useDWNSLP = /* apply DOWN-SLOPE Flow */
(PID.TID 0000.0001)                   F
(PID.TID 0000.0001)     ;
(PID.TID 0000.0001) PTRACERS_useKPP = /* apply KPP scheme */
(PID.TID 0000.0001)                   T
(PID.TID 0000.0001)     ;
(PID.TID 0000.0001) PTRACERS_ref = /* Reference vertical profile */
(PID.TID 0000.0001)    35 @  0.000000000000000E+00              /* K =  1: 35 */
(PID.TID 0000.0001)     ;
(PID.TID 0000.0001) PTRACERS_EvPrRn =/* tracer conc. in Evap. & Rain */
(PID.TID 0000.0001)                 1.234567000000000E+05
(PID.TID 0000.0001)     ;
(PID.TID 0000.0001)  -----------------------------------
(PID.TID 0000.0001)  tracer number :   40
(PID.TID 0000.0001) PTRACERS_names = /* Tracer short name */
(PID.TID 0000.0001)               'BIO_3_003'
(PID.TID 0000.0001)     ;
(PID.TID 0000.0001) PTRACERS_long_names = /* Tracer long name */
(PID.TID 0000.0001)               ''
(PID.TID 0000.0001)     ;
(PID.TID 0000.0001) PTRACERS_ioLabel = /* tracer IO Label */
(PID.TID 0000.0001)               '40'
(PID.TID 0000.0001)     ;
(PID.TID 0000.0001) PTRACERS_advScheme = /* Advection Scheme */
(PID.TID 0000.0001)                      33
(PID.TID 0000.0001)     ;
(PID.TID 0000.0001) PTRACERS_SOM_Advection = /* tracer uses SOM advection scheme */
(PID.TID 0000.0001)                   F
(PID.TID 0000.0001)     ;
(PID.TID 0000.0001) PTRACERS_ImplVertAdv = /* implicit vert. advection flag */
(PID.TID 0000.0001)                   F
(PID.TID 0000.0001)     ;
(PID.TID 0000.0001) PTRACERS_diffKh = /* Laplacian Diffusivity */
(PID.TID 0000.0001)                 0.000000000000000E+00
(PID.TID 0000.0001)     ;
(PID.TID 0000.0001) PTRACERS_diffK4 = /* Biharmonic Diffusivity */
(PID.TID 0000.0001)                 0.000000000000000E+00
(PID.TID 0000.0001)     ;
(PID.TID 0000.0001) PTRACERS_diffKrNr = /* Vertical Diffusivity */
(PID.TID 0000.0001)    35 @  1.000000000000000E-05              /* K =  1: 35 */
(PID.TID 0000.0001)     ;
(PID.TID 0000.0001) PTRACERS_useGMRedi = /* apply GM-Redi */
(PID.TID 0000.0001)                   F
(PID.TID 0000.0001)     ;
(PID.TID 0000.0001) PTRACERS_useDWNSLP = /* apply DOWN-SLOPE Flow */
(PID.TID 0000.0001)                   F
(PID.TID 0000.0001)     ;
(PID.TID 0000.0001) PTRACERS_useKPP = /* apply KPP scheme */
(PID.TID 0000.0001)                   T
(PID.TID 0000.0001)     ;
(PID.TID 0000.0001) PTRACERS_ref = /* Reference vertical profile */
(PID.TID 0000.0001)    35 @  0.000000000000000E+00              /* K =  1: 35 */
(PID.TID 0000.0001)     ;
(PID.TID 0000.0001) PTRACERS_EvPrRn =/* tracer conc. in Evap. & Rain */
(PID.TID 0000.0001)                 1.234567000000000E+05
(PID.TID 0000.0001)     ;
(PID.TID 0000.0001)  -----------------------------------
(PID.TID 0000.0001)  tracer number :   41
(PID.TID 0000.0001) PTRACERS_names = /* Tracer short name */
(PID.TID 0000.0001)               'BIO_3_004'
(PID.TID 0000.0001)     ;
(PID.TID 0000.0001) PTRACERS_long_names = /* Tracer long name */
(PID.TID 0000.0001)               ''
(PID.TID 0000.0001)     ;
(PID.TID 0000.0001) PTRACERS_ioLabel = /* tracer IO Label */
(PID.TID 0000.0001)               '41'
(PID.TID 0000.0001)     ;
(PID.TID 0000.0001) PTRACERS_advScheme = /* Advection Scheme */
(PID.TID 0000.0001)                      33
(PID.TID 0000.0001)     ;
(PID.TID 0000.0001) PTRACERS_SOM_Advection = /* tracer uses SOM advection scheme */
(PID.TID 0000.0001)                   F
(PID.TID 0000.0001)     ;
(PID.TID 0000.0001) PTRACERS_ImplVertAdv = /* implicit vert. advection flag */
(PID.TID 0000.0001)                   F
(PID.TID 0000.0001)     ;
(PID.TID 0000.0001) PTRACERS_diffKh = /* Laplacian Diffusivity */
(PID.TID 0000.0001)                 0.000000000000000E+00
(PID.TID 0000.0001)     ;
(PID.TID 0000.0001) PTRACERS_diffK4 = /* Biharmonic Diffusivity */
(PID.TID 0000.0001)                 0.000000000000000E+00
(PID.TID 0000.0001)     ;
(PID.TID 0000.0001) PTRACERS_diffKrNr = /* Vertical Diffusivity */
(PID.TID 0000.0001)    35 @  1.000000000000000E-05              /* K =  1: 35 */
(PID.TID 0000.0001)     ;
(PID.TID 0000.0001) PTRACERS_useGMRedi = /* apply GM-Redi */
(PID.TID 0000.0001)                   F
(PID.TID 0000.0001)     ;
(PID.TID 0000.0001) PTRACERS_useDWNSLP = /* apply DOWN-SLOPE Flow */
(PID.TID 0000.0001)                   F
(PID.TID 0000.0001)     ;
(PID.TID 0000.0001) PTRACERS_useKPP = /* apply KPP scheme */
(PID.TID 0000.0001)                   T
(PID.TID 0000.0001)     ;
(PID.TID 0000.0001) PTRACERS_ref = /* Reference vertical profile */
(PID.TID 0000.0001)    35 @  0.000000000000000E+00              /* K =  1: 35 */
(PID.TID 0000.0001)     ;
(PID.TID 0000.0001) PTRACERS_EvPrRn =/* tracer conc. in Evap. & Rain */
(PID.TID 0000.0001)                 1.234567000000000E+05
(PID.TID 0000.0001)     ;
(PID.TID 0000.0001)  -----------------------------------
(PID.TID 0000.0001)  tracer number :   42
(PID.TID 0000.0001) PTRACERS_names = /* Tracer short name */
(PID.TID 0000.0001)               'BIO_3_005'
(PID.TID 0000.0001)     ;
(PID.TID 0000.0001) PTRACERS_long_names = /* Tracer long name */
(PID.TID 0000.0001)               ''
(PID.TID 0000.0001)     ;
(PID.TID 0000.0001) PTRACERS_ioLabel = /* tracer IO Label */
(PID.TID 0000.0001)               '42'
(PID.TID 0000.0001)     ;
(PID.TID 0000.0001) PTRACERS_advScheme = /* Advection Scheme */
(PID.TID 0000.0001)                      33
(PID.TID 0000.0001)     ;
(PID.TID 0000.0001) PTRACERS_SOM_Advection = /* tracer uses SOM advection scheme */
(PID.TID 0000.0001)                   F
(PID.TID 0000.0001)     ;
(PID.TID 0000.0001) PTRACERS_ImplVertAdv = /* implicit vert. advection flag */
(PID.TID 0000.0001)                   F
(PID.TID 0000.0001)     ;
(PID.TID 0000.0001) PTRACERS_diffKh = /* Laplacian Diffusivity */
(PID.TID 0000.0001)                 0.000000000000000E+00
(PID.TID 0000.0001)     ;
(PID.TID 0000.0001) PTRACERS_diffK4 = /* Biharmonic Diffusivity */
(PID.TID 0000.0001)                 0.000000000000000E+00
(PID.TID 0000.0001)     ;
(PID.TID 0000.0001) PTRACERS_diffKrNr = /* Vertical Diffusivity */
(PID.TID 0000.0001)    35 @  1.000000000000000E-05              /* K =  1: 35 */
(PID.TID 0000.0001)     ;
(PID.TID 0000.0001) PTRACERS_useGMRedi = /* apply GM-Redi */
(PID.TID 0000.0001)                   F
(PID.TID 0000.0001)     ;
(PID.TID 0000.0001) PTRACERS_useDWNSLP = /* apply DOWN-SLOPE Flow */
(PID.TID 0000.0001)                   F
(PID.TID 0000.0001)     ;
(PID.TID 0000.0001) PTRACERS_useKPP = /* apply KPP scheme */
(PID.TID 0000.0001)                   T
(PID.TID 0000.0001)     ;
(PID.TID 0000.0001) PTRACERS_ref = /* Reference vertical profile */
(PID.TID 0000.0001)    35 @  0.000000000000000E+00              /* K =  1: 35 */
(PID.TID 0000.0001)     ;
(PID.TID 0000.0001) PTRACERS_EvPrRn =/* tracer conc. in Evap. & Rain */
(PID.TID 0000.0001)                 1.234567000000000E+05
(PID.TID 0000.0001)     ;
(PID.TID 0000.0001)  -----------------------------------
(PID.TID 0000.0001)  tracer number :   43
(PID.TID 0000.0001) PTRACERS_names = /* Tracer short name */
(PID.TID 0000.0001)               'BIO_3_006'
(PID.TID 0000.0001)     ;
(PID.TID 0000.0001) PTRACERS_long_names = /* Tracer long name */
(PID.TID 0000.0001)               ''
(PID.TID 0000.0001)     ;
(PID.TID 0000.0001) PTRACERS_ioLabel = /* tracer IO Label */
(PID.TID 0000.0001)               '43'
(PID.TID 0000.0001)     ;
(PID.TID 0000.0001) PTRACERS_advScheme = /* Advection Scheme */
(PID.TID 0000.0001)                      33
(PID.TID 0000.0001)     ;
(PID.TID 0000.0001) PTRACERS_SOM_Advection = /* tracer uses SOM advection scheme */
(PID.TID 0000.0001)                   F
(PID.TID 0000.0001)     ;
(PID.TID 0000.0001) PTRACERS_ImplVertAdv = /* implicit vert. advection flag */
(PID.TID 0000.0001)                   F
(PID.TID 0000.0001)     ;
(PID.TID 0000.0001) PTRACERS_diffKh = /* Laplacian Diffusivity */
(PID.TID 0000.0001)                 0.000000000000000E+00
(PID.TID 0000.0001)     ;
(PID.TID 0000.0001) PTRACERS_diffK4 = /* Biharmonic Diffusivity */
(PID.TID 0000.0001)                 0.000000000000000E+00
(PID.TID 0000.0001)     ;
(PID.TID 0000.0001) PTRACERS_diffKrNr = /* Vertical Diffusivity */
(PID.TID 0000.0001)    35 @  1.000000000000000E-05              /* K =  1: 35 */
(PID.TID 0000.0001)     ;
(PID.TID 0000.0001) PTRACERS_useGMRedi = /* apply GM-Redi */
(PID.TID 0000.0001)                   F
(PID.TID 0000.0001)     ;
(PID.TID 0000.0001) PTRACERS_useDWNSLP = /* apply DOWN-SLOPE Flow */
(PID.TID 0000.0001)                   F
(PID.TID 0000.0001)     ;
(PID.TID 0000.0001) PTRACERS_useKPP = /* apply KPP scheme */
(PID.TID 0000.0001)                   T
(PID.TID 0000.0001)     ;
(PID.TID 0000.0001) PTRACERS_ref = /* Reference vertical profile */
(PID.TID 0000.0001)    35 @  0.000000000000000E+00              /* K =  1: 35 */
(PID.TID 0000.0001)     ;
(PID.TID 0000.0001) PTRACERS_EvPrRn =/* tracer conc. in Evap. & Rain */
(PID.TID 0000.0001)                 1.234567000000000E+05
(PID.TID 0000.0001)     ;
(PID.TID 0000.0001)  -----------------------------------
(PID.TID 0000.0001)  tracer number :   44
(PID.TID 0000.0001) PTRACERS_names = /* Tracer short name */
(PID.TID 0000.0001)               'BIO_3_007'
(PID.TID 0000.0001)     ;
(PID.TID 0000.0001) PTRACERS_long_names = /* Tracer long name */
(PID.TID 0000.0001)               ''
(PID.TID 0000.0001)     ;
(PID.TID 0000.0001) PTRACERS_ioLabel = /* tracer IO Label */
(PID.TID 0000.0001)               '44'
(PID.TID 0000.0001)     ;
(PID.TID 0000.0001) PTRACERS_advScheme = /* Advection Scheme */
(PID.TID 0000.0001)                      33
(PID.TID 0000.0001)     ;
(PID.TID 0000.0001) PTRACERS_SOM_Advection = /* tracer uses SOM advection scheme */
(PID.TID 0000.0001)                   F
(PID.TID 0000.0001)     ;
(PID.TID 0000.0001) PTRACERS_ImplVertAdv = /* implicit vert. advection flag */
(PID.TID 0000.0001)                   F
(PID.TID 0000.0001)     ;
(PID.TID 0000.0001) PTRACERS_diffKh = /* Laplacian Diffusivity */
(PID.TID 0000.0001)                 0.000000000000000E+00
(PID.TID 0000.0001)     ;
(PID.TID 0000.0001) PTRACERS_diffK4 = /* Biharmonic Diffusivity */
(PID.TID 0000.0001)                 0.000000000000000E+00
(PID.TID 0000.0001)     ;
(PID.TID 0000.0001) PTRACERS_diffKrNr = /* Vertical Diffusivity */
(PID.TID 0000.0001)    35 @  1.000000000000000E-05              /* K =  1: 35 */
(PID.TID 0000.0001)     ;
(PID.TID 0000.0001) PTRACERS_useGMRedi = /* apply GM-Redi */
(PID.TID 0000.0001)                   F
(PID.TID 0000.0001)     ;
(PID.TID 0000.0001) PTRACERS_useDWNSLP = /* apply DOWN-SLOPE Flow */
(PID.TID 0000.0001)                   F
(PID.TID 0000.0001)     ;
(PID.TID 0000.0001) PTRACERS_useKPP = /* apply KPP scheme */
(PID.TID 0000.0001)                   T
(PID.TID 0000.0001)     ;
(PID.TID 0000.0001) PTRACERS_ref = /* Reference vertical profile */
(PID.TID 0000.0001)    35 @  0.000000000000000E+00              /* K =  1: 35 */
(PID.TID 0000.0001)     ;
(PID.TID 0000.0001) PTRACERS_EvPrRn =/* tracer conc. in Evap. & Rain */
(PID.TID 0000.0001)                 1.234567000000000E+05
(PID.TID 0000.0001)     ;
(PID.TID 0000.0001)  -----------------------------------
(PID.TID 0000.0001)  tracer number :   45
(PID.TID 0000.0001) PTRACERS_names = /* Tracer short name */
(PID.TID 0000.0001)               'BIO_3_008'
(PID.TID 0000.0001)     ;
(PID.TID 0000.0001) PTRACERS_long_names = /* Tracer long name */
(PID.TID 0000.0001)               ''
(PID.TID 0000.0001)     ;
(PID.TID 0000.0001) PTRACERS_ioLabel = /* tracer IO Label */
(PID.TID 0000.0001)               '45'
(PID.TID 0000.0001)     ;
(PID.TID 0000.0001) PTRACERS_advScheme = /* Advection Scheme */
(PID.TID 0000.0001)                      33
(PID.TID 0000.0001)     ;
(PID.TID 0000.0001) PTRACERS_SOM_Advection = /* tracer uses SOM advection scheme */
(PID.TID 0000.0001)                   F
(PID.TID 0000.0001)     ;
(PID.TID 0000.0001) PTRACERS_ImplVertAdv = /* implicit vert. advection flag */
(PID.TID 0000.0001)                   F
(PID.TID 0000.0001)     ;
(PID.TID 0000.0001) PTRACERS_diffKh = /* Laplacian Diffusivity */
(PID.TID 0000.0001)                 0.000000000000000E+00
(PID.TID 0000.0001)     ;
(PID.TID 0000.0001) PTRACERS_diffK4 = /* Biharmonic Diffusivity */
(PID.TID 0000.0001)                 0.000000000000000E+00
(PID.TID 0000.0001)     ;
(PID.TID 0000.0001) PTRACERS_diffKrNr = /* Vertical Diffusivity */
(PID.TID 0000.0001)    35 @  1.000000000000000E-05              /* K =  1: 35 */
(PID.TID 0000.0001)     ;
(PID.TID 0000.0001) PTRACERS_useGMRedi = /* apply GM-Redi */
(PID.TID 0000.0001)                   F
(PID.TID 0000.0001)     ;
(PID.TID 0000.0001) PTRACERS_useDWNSLP = /* apply DOWN-SLOPE Flow */
(PID.TID 0000.0001)                   F
(PID.TID 0000.0001)     ;
(PID.TID 0000.0001) PTRACERS_useKPP = /* apply KPP scheme */
(PID.TID 0000.0001)                   T
(PID.TID 0000.0001)     ;
(PID.TID 0000.0001) PTRACERS_ref = /* Reference vertical profile */
(PID.TID 0000.0001)    35 @  0.000000000000000E+00              /* K =  1: 35 */
(PID.TID 0000.0001)     ;
(PID.TID 0000.0001) PTRACERS_EvPrRn =/* tracer conc. in Evap. & Rain */
(PID.TID 0000.0001)                 1.234567000000000E+05
(PID.TID 0000.0001)     ;
(PID.TID 0000.0001)  -----------------------------------
(PID.TID 0000.0001)  tracer number :   46
(PID.TID 0000.0001) PTRACERS_names = /* Tracer short name */
(PID.TID 0000.0001)               'BIO_3_009'
(PID.TID 0000.0001)     ;
(PID.TID 0000.0001) PTRACERS_long_names = /* Tracer long name */
(PID.TID 0000.0001)               ''
(PID.TID 0000.0001)     ;
(PID.TID 0000.0001) PTRACERS_ioLabel = /* tracer IO Label */
(PID.TID 0000.0001)               '46'
(PID.TID 0000.0001)     ;
(PID.TID 0000.0001) PTRACERS_advScheme = /* Advection Scheme */
(PID.TID 0000.0001)                      33
(PID.TID 0000.0001)     ;
(PID.TID 0000.0001) PTRACERS_SOM_Advection = /* tracer uses SOM advection scheme */
(PID.TID 0000.0001)                   F
(PID.TID 0000.0001)     ;
(PID.TID 0000.0001) PTRACERS_ImplVertAdv = /* implicit vert. advection flag */
(PID.TID 0000.0001)                   F
(PID.TID 0000.0001)     ;
(PID.TID 0000.0001) PTRACERS_diffKh = /* Laplacian Diffusivity */
(PID.TID 0000.0001)                 0.000000000000000E+00
(PID.TID 0000.0001)     ;
(PID.TID 0000.0001) PTRACERS_diffK4 = /* Biharmonic Diffusivity */
(PID.TID 0000.0001)                 0.000000000000000E+00
(PID.TID 0000.0001)     ;
(PID.TID 0000.0001) PTRACERS_diffKrNr = /* Vertical Diffusivity */
(PID.TID 0000.0001)    35 @  1.000000000000000E-05              /* K =  1: 35 */
(PID.TID 0000.0001)     ;
(PID.TID 0000.0001) PTRACERS_useGMRedi = /* apply GM-Redi */
(PID.TID 0000.0001)                   F
(PID.TID 0000.0001)     ;
(PID.TID 0000.0001) PTRACERS_useDWNSLP = /* apply DOWN-SLOPE Flow */
(PID.TID 0000.0001)                   F
(PID.TID 0000.0001)     ;
(PID.TID 0000.0001) PTRACERS_useKPP = /* apply KPP scheme */
(PID.TID 0000.0001)                   T
(PID.TID 0000.0001)     ;
(PID.TID 0000.0001) PTRACERS_ref = /* Reference vertical profile */
(PID.TID 0000.0001)    35 @  0.000000000000000E+00              /* K =  1: 35 */
(PID.TID 0000.0001)     ;
(PID.TID 0000.0001) PTRACERS_EvPrRn =/* tracer conc. in Evap. & Rain */
(PID.TID 0000.0001)                 1.234567000000000E+05
(PID.TID 0000.0001)     ;
(PID.TID 0000.0001)  -----------------------------------
(PID.TID 0000.0001)  tracer number :   47
(PID.TID 0000.0001) PTRACERS_names = /* Tracer short name */
(PID.TID 0000.0001)               'BIO_3_010'
(PID.TID 0000.0001)     ;
(PID.TID 0000.0001) PTRACERS_long_names = /* Tracer long name */
(PID.TID 0000.0001)               ''
(PID.TID 0000.0001)     ;
(PID.TID 0000.0001) PTRACERS_ioLabel = /* tracer IO Label */
(PID.TID 0000.0001)               '47'
(PID.TID 0000.0001)     ;
(PID.TID 0000.0001) PTRACERS_advScheme = /* Advection Scheme */
(PID.TID 0000.0001)                      33
(PID.TID 0000.0001)     ;
(PID.TID 0000.0001) PTRACERS_SOM_Advection = /* tracer uses SOM advection scheme */
(PID.TID 0000.0001)                   F
(PID.TID 0000.0001)     ;
(PID.TID 0000.0001) PTRACERS_ImplVertAdv = /* implicit vert. advection flag */
(PID.TID 0000.0001)                   F
(PID.TID 0000.0001)     ;
(PID.TID 0000.0001) PTRACERS_diffKh = /* Laplacian Diffusivity */
(PID.TID 0000.0001)                 0.000000000000000E+00
(PID.TID 0000.0001)     ;
(PID.TID 0000.0001) PTRACERS_diffK4 = /* Biharmonic Diffusivity */
(PID.TID 0000.0001)                 0.000000000000000E+00
(PID.TID 0000.0001)     ;
(PID.TID 0000.0001) PTRACERS_diffKrNr = /* Vertical Diffusivity */
(PID.TID 0000.0001)    35 @  1.000000000000000E-05              /* K =  1: 35 */
(PID.TID 0000.0001)     ;
(PID.TID 0000.0001) PTRACERS_useGMRedi = /* apply GM-Redi */
(PID.TID 0000.0001)                   F
(PID.TID 0000.0001)     ;
(PID.TID 0000.0001) PTRACERS_useDWNSLP = /* apply DOWN-SLOPE Flow */
(PID.TID 0000.0001)                   F
(PID.TID 0000.0001)     ;
(PID.TID 0000.0001) PTRACERS_useKPP = /* apply KPP scheme */
(PID.TID 0000.0001)                   T
(PID.TID 0000.0001)     ;
(PID.TID 0000.0001) PTRACERS_ref = /* Reference vertical profile */
(PID.TID 0000.0001)    35 @  0.000000000000000E+00              /* K =  1: 35 */
(PID.TID 0000.0001)     ;
(PID.TID 0000.0001) PTRACERS_EvPrRn =/* tracer conc. in Evap. & Rain */
(PID.TID 0000.0001)                 1.234567000000000E+05
(PID.TID 0000.0001)     ;
(PID.TID 0000.0001)  -----------------------------------
(PID.TID 0000.0001)  tracer number :   48
(PID.TID 0000.0001) PTRACERS_names = /* Tracer short name */
(PID.TID 0000.0001)               'BIO_3_011'
(PID.TID 0000.0001)     ;
(PID.TID 0000.0001) PTRACERS_long_names = /* Tracer long name */
(PID.TID 0000.0001)               ''
(PID.TID 0000.0001)     ;
(PID.TID 0000.0001) PTRACERS_ioLabel = /* tracer IO Label */
(PID.TID 0000.0001)               '48'
(PID.TID 0000.0001)     ;
(PID.TID 0000.0001) PTRACERS_advScheme = /* Advection Scheme */
(PID.TID 0000.0001)                      33
(PID.TID 0000.0001)     ;
(PID.TID 0000.0001) PTRACERS_SOM_Advection = /* tracer uses SOM advection scheme */
(PID.TID 0000.0001)                   F
(PID.TID 0000.0001)     ;
(PID.TID 0000.0001) PTRACERS_ImplVertAdv = /* implicit vert. advection flag */
(PID.TID 0000.0001)                   F
(PID.TID 0000.0001)     ;
(PID.TID 0000.0001) PTRACERS_diffKh = /* Laplacian Diffusivity */
(PID.TID 0000.0001)                 0.000000000000000E+00
(PID.TID 0000.0001)     ;
(PID.TID 0000.0001) PTRACERS_diffK4 = /* Biharmonic Diffusivity */
(PID.TID 0000.0001)                 0.000000000000000E+00
(PID.TID 0000.0001)     ;
(PID.TID 0000.0001) PTRACERS_diffKrNr = /* Vertical Diffusivity */
(PID.TID 0000.0001)    35 @  1.000000000000000E-05              /* K =  1: 35 */
(PID.TID 0000.0001)     ;
(PID.TID 0000.0001) PTRACERS_useGMRedi = /* apply GM-Redi */
(PID.TID 0000.0001)                   F
(PID.TID 0000.0001)     ;
(PID.TID 0000.0001) PTRACERS_useDWNSLP = /* apply DOWN-SLOPE Flow */
(PID.TID 0000.0001)                   F
(PID.TID 0000.0001)     ;
(PID.TID 0000.0001) PTRACERS_useKPP = /* apply KPP scheme */
(PID.TID 0000.0001)                   T
(PID.TID 0000.0001)     ;
(PID.TID 0000.0001) PTRACERS_ref = /* Reference vertical profile */
(PID.TID 0000.0001)    35 @  0.000000000000000E+00              /* K =  1: 35 */
(PID.TID 0000.0001)     ;
(PID.TID 0000.0001) PTRACERS_EvPrRn =/* tracer conc. in Evap. & Rain */
(PID.TID 0000.0001)                 1.234567000000000E+05
(PID.TID 0000.0001)     ;
(PID.TID 0000.0001)  -----------------------------------
(PID.TID 0000.0001)  tracer number :   49
(PID.TID 0000.0001) PTRACERS_names = /* Tracer short name */
(PID.TID 0000.0001)               'BIO_3_012'
(PID.TID 0000.0001)     ;
(PID.TID 0000.0001) PTRACERS_long_names = /* Tracer long name */
(PID.TID 0000.0001)               ''
(PID.TID 0000.0001)     ;
(PID.TID 0000.0001) PTRACERS_ioLabel = /* tracer IO Label */
(PID.TID 0000.0001)               '49'
(PID.TID 0000.0001)     ;
(PID.TID 0000.0001) PTRACERS_advScheme = /* Advection Scheme */
(PID.TID 0000.0001)                      33
(PID.TID 0000.0001)     ;
(PID.TID 0000.0001) PTRACERS_SOM_Advection = /* tracer uses SOM advection scheme */
(PID.TID 0000.0001)                   F
(PID.TID 0000.0001)     ;
(PID.TID 0000.0001) PTRACERS_ImplVertAdv = /* implicit vert. advection flag */
(PID.TID 0000.0001)                   F
(PID.TID 0000.0001)     ;
(PID.TID 0000.0001) PTRACERS_diffKh = /* Laplacian Diffusivity */
(PID.TID 0000.0001)                 0.000000000000000E+00
(PID.TID 0000.0001)     ;
(PID.TID 0000.0001) PTRACERS_diffK4 = /* Biharmonic Diffusivity */
(PID.TID 0000.0001)                 0.000000000000000E+00
(PID.TID 0000.0001)     ;
(PID.TID 0000.0001) PTRACERS_diffKrNr = /* Vertical Diffusivity */
(PID.TID 0000.0001)    35 @  1.000000000000000E-05              /* K =  1: 35 */
(PID.TID 0000.0001)     ;
(PID.TID 0000.0001) PTRACERS_useGMRedi = /* apply GM-Redi */
(PID.TID 0000.0001)                   F
(PID.TID 0000.0001)     ;
(PID.TID 0000.0001) PTRACERS_useDWNSLP = /* apply DOWN-SLOPE Flow */
(PID.TID 0000.0001)                   F
(PID.TID 0000.0001)     ;
(PID.TID 0000.0001) PTRACERS_useKPP = /* apply KPP scheme */
(PID.TID 0000.0001)                   T
(PID.TID 0000.0001)     ;
(PID.TID 0000.0001) PTRACERS_ref = /* Reference vertical profile */
(PID.TID 0000.0001)    35 @  0.000000000000000E+00              /* K =  1: 35 */
(PID.TID 0000.0001)     ;
(PID.TID 0000.0001) PTRACERS_EvPrRn =/* tracer conc. in Evap. & Rain */
(PID.TID 0000.0001)                 1.234567000000000E+05
(PID.TID 0000.0001)     ;
(PID.TID 0000.0001)  -----------------------------------
(PID.TID 0000.0001)  tracer number :   50
(PID.TID 0000.0001) PTRACERS_names = /* Tracer short name */
(PID.TID 0000.0001)               'BIO_3_013'
(PID.TID 0000.0001)     ;
(PID.TID 0000.0001) PTRACERS_long_names = /* Tracer long name */
(PID.TID 0000.0001)               ''
(PID.TID 0000.0001)     ;
(PID.TID 0000.0001) PTRACERS_ioLabel = /* tracer IO Label */
(PID.TID 0000.0001)               '50'
(PID.TID 0000.0001)     ;
(PID.TID 0000.0001) PTRACERS_advScheme = /* Advection Scheme */
(PID.TID 0000.0001)                      33
(PID.TID 0000.0001)     ;
(PID.TID 0000.0001) PTRACERS_SOM_Advection = /* tracer uses SOM advection scheme */
(PID.TID 0000.0001)                   F
(PID.TID 0000.0001)     ;
(PID.TID 0000.0001) PTRACERS_ImplVertAdv = /* implicit vert. advection flag */
(PID.TID 0000.0001)                   F
(PID.TID 0000.0001)     ;
(PID.TID 0000.0001) PTRACERS_diffKh = /* Laplacian Diffusivity */
(PID.TID 0000.0001)                 0.000000000000000E+00
(PID.TID 0000.0001)     ;
(PID.TID 0000.0001) PTRACERS_diffK4 = /* Biharmonic Diffusivity */
(PID.TID 0000.0001)                 0.000000000000000E+00
(PID.TID 0000.0001)     ;
(PID.TID 0000.0001) PTRACERS_diffKrNr = /* Vertical Diffusivity */
(PID.TID 0000.0001)    35 @  1.000000000000000E-05              /* K =  1: 35 */
(PID.TID 0000.0001)     ;
(PID.TID 0000.0001) PTRACERS_useGMRedi = /* apply GM-Redi */
(PID.TID 0000.0001)                   F
(PID.TID 0000.0001)     ;
(PID.TID 0000.0001) PTRACERS_useDWNSLP = /* apply DOWN-SLOPE Flow */
(PID.TID 0000.0001)                   F
(PID.TID 0000.0001)     ;
(PID.TID 0000.0001) PTRACERS_useKPP = /* apply KPP scheme */
(PID.TID 0000.0001)                   T
(PID.TID 0000.0001)     ;
(PID.TID 0000.0001) PTRACERS_ref = /* Reference vertical profile */
(PID.TID 0000.0001)    35 @  0.000000000000000E+00              /* K =  1: 35 */
(PID.TID 0000.0001)     ;
(PID.TID 0000.0001) PTRACERS_EvPrRn =/* tracer conc. in Evap. & Rain */
(PID.TID 0000.0001)                 1.234567000000000E+05
(PID.TID 0000.0001)     ;
(PID.TID 0000.0001)  -----------------------------------
(PID.TID 0000.0001)  tracer number :   51
(PID.TID 0000.0001) PTRACERS_names = /* Tracer short name */
(PID.TID 0000.0001)               'BIO_3_014'
(PID.TID 0000.0001)     ;
(PID.TID 0000.0001) PTRACERS_long_names = /* Tracer long name */
(PID.TID 0000.0001)               ''
(PID.TID 0000.0001)     ;
(PID.TID 0000.0001) PTRACERS_ioLabel = /* tracer IO Label */
(PID.TID 0000.0001)               '51'
(PID.TID 0000.0001)     ;
(PID.TID 0000.0001) PTRACERS_advScheme = /* Advection Scheme */
(PID.TID 0000.0001)                      33
(PID.TID 0000.0001)     ;
(PID.TID 0000.0001) PTRACERS_SOM_Advection = /* tracer uses SOM advection scheme */
(PID.TID 0000.0001)                   F
(PID.TID 0000.0001)     ;
(PID.TID 0000.0001) PTRACERS_ImplVertAdv = /* implicit vert. advection flag */
(PID.TID 0000.0001)                   F
(PID.TID 0000.0001)     ;
(PID.TID 0000.0001) PTRACERS_diffKh = /* Laplacian Diffusivity */
(PID.TID 0000.0001)                 0.000000000000000E+00
(PID.TID 0000.0001)     ;
(PID.TID 0000.0001) PTRACERS_diffK4 = /* Biharmonic Diffusivity */
(PID.TID 0000.0001)                 0.000000000000000E+00
(PID.TID 0000.0001)     ;
(PID.TID 0000.0001) PTRACERS_diffKrNr = /* Vertical Diffusivity */
(PID.TID 0000.0001)    35 @  1.000000000000000E-05              /* K =  1: 35 */
(PID.TID 0000.0001)     ;
(PID.TID 0000.0001) PTRACERS_useGMRedi = /* apply GM-Redi */
(PID.TID 0000.0001)                   F
(PID.TID 0000.0001)     ;
(PID.TID 0000.0001) PTRACERS_useDWNSLP = /* apply DOWN-SLOPE Flow */
(PID.TID 0000.0001)                   F
(PID.TID 0000.0001)     ;
(PID.TID 0000.0001) PTRACERS_useKPP = /* apply KPP scheme */
(PID.TID 0000.0001)                   T
(PID.TID 0000.0001)     ;
(PID.TID 0000.0001) PTRACERS_ref = /* Reference vertical profile */
(PID.TID 0000.0001)    35 @  0.000000000000000E+00              /* K =  1: 35 */
(PID.TID 0000.0001)     ;
(PID.TID 0000.0001) PTRACERS_EvPrRn =/* tracer conc. in Evap. & Rain */
(PID.TID 0000.0001)                 1.234567000000000E+05
(PID.TID 0000.0001)     ;
(PID.TID 0000.0001)  -----------------------------------
(PID.TID 0000.0001)  tracer number :   52
(PID.TID 0000.0001) PTRACERS_names = /* Tracer short name */
(PID.TID 0000.0001)               'BIO_3_015'
(PID.TID 0000.0001)     ;
(PID.TID 0000.0001) PTRACERS_long_names = /* Tracer long name */
(PID.TID 0000.0001)               ''
(PID.TID 0000.0001)     ;
(PID.TID 0000.0001) PTRACERS_ioLabel = /* tracer IO Label */
(PID.TID 0000.0001)               '52'
(PID.TID 0000.0001)     ;
(PID.TID 0000.0001) PTRACERS_advScheme = /* Advection Scheme */
(PID.TID 0000.0001)                      33
(PID.TID 0000.0001)     ;
(PID.TID 0000.0001) PTRACERS_SOM_Advection = /* tracer uses SOM advection scheme */
(PID.TID 0000.0001)                   F
(PID.TID 0000.0001)     ;
(PID.TID 0000.0001) PTRACERS_ImplVertAdv = /* implicit vert. advection flag */
(PID.TID 0000.0001)                   F
(PID.TID 0000.0001)     ;
(PID.TID 0000.0001) PTRACERS_diffKh = /* Laplacian Diffusivity */
(PID.TID 0000.0001)                 0.000000000000000E+00
(PID.TID 0000.0001)     ;
(PID.TID 0000.0001) PTRACERS_diffK4 = /* Biharmonic Diffusivity */
(PID.TID 0000.0001)                 0.000000000000000E+00
(PID.TID 0000.0001)     ;
(PID.TID 0000.0001) PTRACERS_diffKrNr = /* Vertical Diffusivity */
(PID.TID 0000.0001)    35 @  1.000000000000000E-05              /* K =  1: 35 */
(PID.TID 0000.0001)     ;
(PID.TID 0000.0001) PTRACERS_useGMRedi = /* apply GM-Redi */
(PID.TID 0000.0001)                   F
(PID.TID 0000.0001)     ;
(PID.TID 0000.0001) PTRACERS_useDWNSLP = /* apply DOWN-SLOPE Flow */
(PID.TID 0000.0001)                   F
(PID.TID 0000.0001)     ;
(PID.TID 0000.0001) PTRACERS_useKPP = /* apply KPP scheme */
(PID.TID 0000.0001)                   T
(PID.TID 0000.0001)     ;
(PID.TID 0000.0001) PTRACERS_ref = /* Reference vertical profile */
(PID.TID 0000.0001)    35 @  0.000000000000000E+00              /* K =  1: 35 */
(PID.TID 0000.0001)     ;
(PID.TID 0000.0001) PTRACERS_EvPrRn =/* tracer conc. in Evap. & Rain */
(PID.TID 0000.0001)                 1.234567000000000E+05
(PID.TID 0000.0001)     ;
(PID.TID 0000.0001)  -----------------------------------
(PID.TID 0000.0001)  tracer number :   53
(PID.TID 0000.0001) PTRACERS_names = /* Tracer short name */
(PID.TID 0000.0001)               'BIO_3_016'
(PID.TID 0000.0001)     ;
(PID.TID 0000.0001) PTRACERS_long_names = /* Tracer long name */
(PID.TID 0000.0001)               ''
(PID.TID 0000.0001)     ;
(PID.TID 0000.0001) PTRACERS_ioLabel = /* tracer IO Label */
(PID.TID 0000.0001)               '53'
(PID.TID 0000.0001)     ;
(PID.TID 0000.0001) PTRACERS_advScheme = /* Advection Scheme */
(PID.TID 0000.0001)                      33
(PID.TID 0000.0001)     ;
(PID.TID 0000.0001) PTRACERS_SOM_Advection = /* tracer uses SOM advection scheme */
(PID.TID 0000.0001)                   F
(PID.TID 0000.0001)     ;
(PID.TID 0000.0001) PTRACERS_ImplVertAdv = /* implicit vert. advection flag */
(PID.TID 0000.0001)                   F
(PID.TID 0000.0001)     ;
(PID.TID 0000.0001) PTRACERS_diffKh = /* Laplacian Diffusivity */
(PID.TID 0000.0001)                 0.000000000000000E+00
(PID.TID 0000.0001)     ;
(PID.TID 0000.0001) PTRACERS_diffK4 = /* Biharmonic Diffusivity */
(PID.TID 0000.0001)                 0.000000000000000E+00
(PID.TID 0000.0001)     ;
(PID.TID 0000.0001) PTRACERS_diffKrNr = /* Vertical Diffusivity */
(PID.TID 0000.0001)    35 @  1.000000000000000E-05              /* K =  1: 35 */
(PID.TID 0000.0001)     ;
(PID.TID 0000.0001) PTRACERS_useGMRedi = /* apply GM-Redi */
(PID.TID 0000.0001)                   F
(PID.TID 0000.0001)     ;
(PID.TID 0000.0001) PTRACERS_useDWNSLP = /* apply DOWN-SLOPE Flow */
(PID.TID 0000.0001)                   F
(PID.TID 0000.0001)     ;
(PID.TID 0000.0001) PTRACERS_useKPP = /* apply KPP scheme */
(PID.TID 0000.0001)                   T
(PID.TID 0000.0001)     ;
(PID.TID 0000.0001) PTRACERS_ref = /* Reference vertical profile */
(PID.TID 0000.0001)    35 @  0.000000000000000E+00              /* K =  1: 35 */
(PID.TID 0000.0001)     ;
(PID.TID 0000.0001) PTRACERS_EvPrRn =/* tracer conc. in Evap. & Rain */
(PID.TID 0000.0001)                 1.234567000000000E+05
(PID.TID 0000.0001)     ;
(PID.TID 0000.0001)  -----------------------------------
(PID.TID 0000.0001)  tracer number :   54
(PID.TID 0000.0001) PTRACERS_names = /* Tracer short name */
(PID.TID 0000.0001)               'BIO_4_001'
(PID.TID 0000.0001)     ;
(PID.TID 0000.0001) PTRACERS_long_names = /* Tracer long name */
(PID.TID 0000.0001)               ''
(PID.TID 0000.0001)     ;
(PID.TID 0000.0001) PTRACERS_ioLabel = /* tracer IO Label */
(PID.TID 0000.0001)               '54'
(PID.TID 0000.0001)     ;
(PID.TID 0000.0001) PTRACERS_advScheme = /* Advection Scheme */
(PID.TID 0000.0001)                      33
(PID.TID 0000.0001)     ;
(PID.TID 0000.0001) PTRACERS_SOM_Advection = /* tracer uses SOM advection scheme */
(PID.TID 0000.0001)                   F
(PID.TID 0000.0001)     ;
(PID.TID 0000.0001) PTRACERS_ImplVertAdv = /* implicit vert. advection flag */
(PID.TID 0000.0001)                   F
(PID.TID 0000.0001)     ;
(PID.TID 0000.0001) PTRACERS_diffKh = /* Laplacian Diffusivity */
(PID.TID 0000.0001)                 0.000000000000000E+00
(PID.TID 0000.0001)     ;
(PID.TID 0000.0001) PTRACERS_diffK4 = /* Biharmonic Diffusivity */
(PID.TID 0000.0001)                 0.000000000000000E+00
(PID.TID 0000.0001)     ;
(PID.TID 0000.0001) PTRACERS_diffKrNr = /* Vertical Diffusivity */
(PID.TID 0000.0001)    35 @  1.000000000000000E-05              /* K =  1: 35 */
(PID.TID 0000.0001)     ;
(PID.TID 0000.0001) PTRACERS_useGMRedi = /* apply GM-Redi */
(PID.TID 0000.0001)                   F
(PID.TID 0000.0001)     ;
(PID.TID 0000.0001) PTRACERS_useDWNSLP = /* apply DOWN-SLOPE Flow */
(PID.TID 0000.0001)                   F
(PID.TID 0000.0001)     ;
(PID.TID 0000.0001) PTRACERS_useKPP = /* apply KPP scheme */
(PID.TID 0000.0001)                   T
(PID.TID 0000.0001)     ;
(PID.TID 0000.0001) PTRACERS_ref = /* Reference vertical profile */
(PID.TID 0000.0001)    35 @  0.000000000000000E+00              /* K =  1: 35 */
(PID.TID 0000.0001)     ;
(PID.TID 0000.0001) PTRACERS_EvPrRn =/* tracer conc. in Evap. & Rain */
(PID.TID 0000.0001)                 1.234567000000000E+05
(PID.TID 0000.0001)     ;
(PID.TID 0000.0001)  -----------------------------------
(PID.TID 0000.0001)  tracer number :   55
(PID.TID 0000.0001) PTRACERS_names = /* Tracer short name */
(PID.TID 0000.0001)               'BIO_4_002'
(PID.TID 0000.0001)     ;
(PID.TID 0000.0001) PTRACERS_long_names = /* Tracer long name */
(PID.TID 0000.0001)               ''
(PID.TID 0000.0001)     ;
(PID.TID 0000.0001) PTRACERS_ioLabel = /* tracer IO Label */
(PID.TID 0000.0001)               '55'
(PID.TID 0000.0001)     ;
(PID.TID 0000.0001) PTRACERS_advScheme = /* Advection Scheme */
(PID.TID 0000.0001)                      33
(PID.TID 0000.0001)     ;
(PID.TID 0000.0001) PTRACERS_SOM_Advection = /* tracer uses SOM advection scheme */
(PID.TID 0000.0001)                   F
(PID.TID 0000.0001)     ;
(PID.TID 0000.0001) PTRACERS_ImplVertAdv = /* implicit vert. advection flag */
(PID.TID 0000.0001)                   F
(PID.TID 0000.0001)     ;
(PID.TID 0000.0001) PTRACERS_diffKh = /* Laplacian Diffusivity */
(PID.TID 0000.0001)                 0.000000000000000E+00
(PID.TID 0000.0001)     ;
(PID.TID 0000.0001) PTRACERS_diffK4 = /* Biharmonic Diffusivity */
(PID.TID 0000.0001)                 0.000000000000000E+00
(PID.TID 0000.0001)     ;
(PID.TID 0000.0001) PTRACERS_diffKrNr = /* Vertical Diffusivity */
(PID.TID 0000.0001)    35 @  1.000000000000000E-05              /* K =  1: 35 */
(PID.TID 0000.0001)     ;
(PID.TID 0000.0001) PTRACERS_useGMRedi = /* apply GM-Redi */
(PID.TID 0000.0001)                   F
(PID.TID 0000.0001)     ;
(PID.TID 0000.0001) PTRACERS_useDWNSLP = /* apply DOWN-SLOPE Flow */
(PID.TID 0000.0001)                   F
(PID.TID 0000.0001)     ;
(PID.TID 0000.0001) PTRACERS_useKPP = /* apply KPP scheme */
(PID.TID 0000.0001)                   T
(PID.TID 0000.0001)     ;
(PID.TID 0000.0001) PTRACERS_ref = /* Reference vertical profile */
(PID.TID 0000.0001)    35 @  0.000000000000000E+00              /* K =  1: 35 */
(PID.TID 0000.0001)     ;
(PID.TID 0000.0001) PTRACERS_EvPrRn =/* tracer conc. in Evap. & Rain */
(PID.TID 0000.0001)                 1.234567000000000E+05
(PID.TID 0000.0001)     ;
(PID.TID 0000.0001)  -----------------------------------
(PID.TID 0000.0001)  tracer number :   56
(PID.TID 0000.0001) PTRACERS_names = /* Tracer short name */
(PID.TID 0000.0001)               'BIO_4_003'
(PID.TID 0000.0001)     ;
(PID.TID 0000.0001) PTRACERS_long_names = /* Tracer long name */
(PID.TID 0000.0001)               ''
(PID.TID 0000.0001)     ;
(PID.TID 0000.0001) PTRACERS_ioLabel = /* tracer IO Label */
(PID.TID 0000.0001)               '56'
(PID.TID 0000.0001)     ;
(PID.TID 0000.0001) PTRACERS_advScheme = /* Advection Scheme */
(PID.TID 0000.0001)                      33
(PID.TID 0000.0001)     ;
(PID.TID 0000.0001) PTRACERS_SOM_Advection = /* tracer uses SOM advection scheme */
(PID.TID 0000.0001)                   F
(PID.TID 0000.0001)     ;
(PID.TID 0000.0001) PTRACERS_ImplVertAdv = /* implicit vert. advection flag */
(PID.TID 0000.0001)                   F
(PID.TID 0000.0001)     ;
(PID.TID 0000.0001) PTRACERS_diffKh = /* Laplacian Diffusivity */
(PID.TID 0000.0001)                 0.000000000000000E+00
(PID.TID 0000.0001)     ;
(PID.TID 0000.0001) PTRACERS_diffK4 = /* Biharmonic Diffusivity */
(PID.TID 0000.0001)                 0.000000000000000E+00
(PID.TID 0000.0001)     ;
(PID.TID 0000.0001) PTRACERS_diffKrNr = /* Vertical Diffusivity */
(PID.TID 0000.0001)    35 @  1.000000000000000E-05              /* K =  1: 35 */
(PID.TID 0000.0001)     ;
(PID.TID 0000.0001) PTRACERS_useGMRedi = /* apply GM-Redi */
(PID.TID 0000.0001)                   F
(PID.TID 0000.0001)     ;
(PID.TID 0000.0001) PTRACERS_useDWNSLP = /* apply DOWN-SLOPE Flow */
(PID.TID 0000.0001)                   F
(PID.TID 0000.0001)     ;
(PID.TID 0000.0001) PTRACERS_useKPP = /* apply KPP scheme */
(PID.TID 0000.0001)                   T
(PID.TID 0000.0001)     ;
(PID.TID 0000.0001) PTRACERS_ref = /* Reference vertical profile */
(PID.TID 0000.0001)    35 @  0.000000000000000E+00              /* K =  1: 35 */
(PID.TID 0000.0001)     ;
(PID.TID 0000.0001) PTRACERS_EvPrRn =/* tracer conc. in Evap. & Rain */
(PID.TID 0000.0001)                 1.234567000000000E+05
(PID.TID 0000.0001)     ;
(PID.TID 0000.0001)  -----------------------------------
(PID.TID 0000.0001)  tracer number :   57
(PID.TID 0000.0001) PTRACERS_names = /* Tracer short name */
(PID.TID 0000.0001)               'BIO_4_004'
(PID.TID 0000.0001)     ;
(PID.TID 0000.0001) PTRACERS_long_names = /* Tracer long name */
(PID.TID 0000.0001)               ''
(PID.TID 0000.0001)     ;
(PID.TID 0000.0001) PTRACERS_ioLabel = /* tracer IO Label */
(PID.TID 0000.0001)               '57'
(PID.TID 0000.0001)     ;
(PID.TID 0000.0001) PTRACERS_advScheme = /* Advection Scheme */
(PID.TID 0000.0001)                      33
(PID.TID 0000.0001)     ;
(PID.TID 0000.0001) PTRACERS_SOM_Advection = /* tracer uses SOM advection scheme */
(PID.TID 0000.0001)                   F
(PID.TID 0000.0001)     ;
(PID.TID 0000.0001) PTRACERS_ImplVertAdv = /* implicit vert. advection flag */
(PID.TID 0000.0001)                   F
(PID.TID 0000.0001)     ;
(PID.TID 0000.0001) PTRACERS_diffKh = /* Laplacian Diffusivity */
(PID.TID 0000.0001)                 0.000000000000000E+00
(PID.TID 0000.0001)     ;
(PID.TID 0000.0001) PTRACERS_diffK4 = /* Biharmonic Diffusivity */
(PID.TID 0000.0001)                 0.000000000000000E+00
(PID.TID 0000.0001)     ;
(PID.TID 0000.0001) PTRACERS_diffKrNr = /* Vertical Diffusivity */
(PID.TID 0000.0001)    35 @  1.000000000000000E-05              /* K =  1: 35 */
(PID.TID 0000.0001)     ;
(PID.TID 0000.0001) PTRACERS_useGMRedi = /* apply GM-Redi */
(PID.TID 0000.0001)                   F
(PID.TID 0000.0001)     ;
(PID.TID 0000.0001) PTRACERS_useDWNSLP = /* apply DOWN-SLOPE Flow */
(PID.TID 0000.0001)                   F
(PID.TID 0000.0001)     ;
(PID.TID 0000.0001) PTRACERS_useKPP = /* apply KPP scheme */
(PID.TID 0000.0001)                   T
(PID.TID 0000.0001)     ;
(PID.TID 0000.0001) PTRACERS_ref = /* Reference vertical profile */
(PID.TID 0000.0001)    35 @  0.000000000000000E+00              /* K =  1: 35 */
(PID.TID 0000.0001)     ;
(PID.TID 0000.0001) PTRACERS_EvPrRn =/* tracer conc. in Evap. & Rain */
(PID.TID 0000.0001)                 1.234567000000000E+05
(PID.TID 0000.0001)     ;
(PID.TID 0000.0001)  -----------------------------------
(PID.TID 0000.0001)  tracer number :   58
(PID.TID 0000.0001) PTRACERS_names = /* Tracer short name */
(PID.TID 0000.0001)               'BIO_4_005'
(PID.TID 0000.0001)     ;
(PID.TID 0000.0001) PTRACERS_long_names = /* Tracer long name */
(PID.TID 0000.0001)               ''
(PID.TID 0000.0001)     ;
(PID.TID 0000.0001) PTRACERS_ioLabel = /* tracer IO Label */
(PID.TID 0000.0001)               '58'
(PID.TID 0000.0001)     ;
(PID.TID 0000.0001) PTRACERS_advScheme = /* Advection Scheme */
(PID.TID 0000.0001)                      33
(PID.TID 0000.0001)     ;
(PID.TID 0000.0001) PTRACERS_SOM_Advection = /* tracer uses SOM advection scheme */
(PID.TID 0000.0001)                   F
(PID.TID 0000.0001)     ;
(PID.TID 0000.0001) PTRACERS_ImplVertAdv = /* implicit vert. advection flag */
(PID.TID 0000.0001)                   F
(PID.TID 0000.0001)     ;
(PID.TID 0000.0001) PTRACERS_diffKh = /* Laplacian Diffusivity */
(PID.TID 0000.0001)                 0.000000000000000E+00
(PID.TID 0000.0001)     ;
(PID.TID 0000.0001) PTRACERS_diffK4 = /* Biharmonic Diffusivity */
(PID.TID 0000.0001)                 0.000000000000000E+00
(PID.TID 0000.0001)     ;
(PID.TID 0000.0001) PTRACERS_diffKrNr = /* Vertical Diffusivity */
(PID.TID 0000.0001)    35 @  1.000000000000000E-05              /* K =  1: 35 */
(PID.TID 0000.0001)     ;
(PID.TID 0000.0001) PTRACERS_useGMRedi = /* apply GM-Redi */
(PID.TID 0000.0001)                   F
(PID.TID 0000.0001)     ;
(PID.TID 0000.0001) PTRACERS_useDWNSLP = /* apply DOWN-SLOPE Flow */
(PID.TID 0000.0001)                   F
(PID.TID 0000.0001)     ;
(PID.TID 0000.0001) PTRACERS_useKPP = /* apply KPP scheme */
(PID.TID 0000.0001)                   T
(PID.TID 0000.0001)     ;
(PID.TID 0000.0001) PTRACERS_ref = /* Reference vertical profile */
(PID.TID 0000.0001)    35 @  0.000000000000000E+00              /* K =  1: 35 */
(PID.TID 0000.0001)     ;
(PID.TID 0000.0001) PTRACERS_EvPrRn =/* tracer conc. in Evap. & Rain */
(PID.TID 0000.0001)                 1.234567000000000E+05
(PID.TID 0000.0001)     ;
(PID.TID 0000.0001)  -----------------------------------
(PID.TID 0000.0001)  tracer number :   59
(PID.TID 0000.0001) PTRACERS_names = /* Tracer short name */
(PID.TID 0000.0001)               'BIO_4_006'
(PID.TID 0000.0001)     ;
(PID.TID 0000.0001) PTRACERS_long_names = /* Tracer long name */
(PID.TID 0000.0001)               ''
(PID.TID 0000.0001)     ;
(PID.TID 0000.0001) PTRACERS_ioLabel = /* tracer IO Label */
(PID.TID 0000.0001)               '59'
(PID.TID 0000.0001)     ;
(PID.TID 0000.0001) PTRACERS_advScheme = /* Advection Scheme */
(PID.TID 0000.0001)                      33
(PID.TID 0000.0001)     ;
(PID.TID 0000.0001) PTRACERS_SOM_Advection = /* tracer uses SOM advection scheme */
(PID.TID 0000.0001)                   F
(PID.TID 0000.0001)     ;
(PID.TID 0000.0001) PTRACERS_ImplVertAdv = /* implicit vert. advection flag */
(PID.TID 0000.0001)                   F
(PID.TID 0000.0001)     ;
(PID.TID 0000.0001) PTRACERS_diffKh = /* Laplacian Diffusivity */
(PID.TID 0000.0001)                 0.000000000000000E+00
(PID.TID 0000.0001)     ;
(PID.TID 0000.0001) PTRACERS_diffK4 = /* Biharmonic Diffusivity */
(PID.TID 0000.0001)                 0.000000000000000E+00
(PID.TID 0000.0001)     ;
(PID.TID 0000.0001) PTRACERS_diffKrNr = /* Vertical Diffusivity */
(PID.TID 0000.0001)    35 @  1.000000000000000E-05              /* K =  1: 35 */
(PID.TID 0000.0001)     ;
(PID.TID 0000.0001) PTRACERS_useGMRedi = /* apply GM-Redi */
(PID.TID 0000.0001)                   F
(PID.TID 0000.0001)     ;
(PID.TID 0000.0001) PTRACERS_useDWNSLP = /* apply DOWN-SLOPE Flow */
(PID.TID 0000.0001)                   F
(PID.TID 0000.0001)     ;
(PID.TID 0000.0001) PTRACERS_useKPP = /* apply KPP scheme */
(PID.TID 0000.0001)                   T
(PID.TID 0000.0001)     ;
(PID.TID 0000.0001) PTRACERS_ref = /* Reference vertical profile */
(PID.TID 0000.0001)    35 @  0.000000000000000E+00              /* K =  1: 35 */
(PID.TID 0000.0001)     ;
(PID.TID 0000.0001) PTRACERS_EvPrRn =/* tracer conc. in Evap. & Rain */
(PID.TID 0000.0001)                 1.234567000000000E+05
(PID.TID 0000.0001)     ;
(PID.TID 0000.0001)  -----------------------------------
(PID.TID 0000.0001)  tracer number :   60
(PID.TID 0000.0001) PTRACERS_names = /* Tracer short name */
(PID.TID 0000.0001)               'BIO_4_007'
(PID.TID 0000.0001)     ;
(PID.TID 0000.0001) PTRACERS_long_names = /* Tracer long name */
(PID.TID 0000.0001)               ''
(PID.TID 0000.0001)     ;
(PID.TID 0000.0001) PTRACERS_ioLabel = /* tracer IO Label */
(PID.TID 0000.0001)               '60'
(PID.TID 0000.0001)     ;
(PID.TID 0000.0001) PTRACERS_advScheme = /* Advection Scheme */
(PID.TID 0000.0001)                      33
(PID.TID 0000.0001)     ;
(PID.TID 0000.0001) PTRACERS_SOM_Advection = /* tracer uses SOM advection scheme */
(PID.TID 0000.0001)                   F
(PID.TID 0000.0001)     ;
(PID.TID 0000.0001) PTRACERS_ImplVertAdv = /* implicit vert. advection flag */
(PID.TID 0000.0001)                   F
(PID.TID 0000.0001)     ;
(PID.TID 0000.0001) PTRACERS_diffKh = /* Laplacian Diffusivity */
(PID.TID 0000.0001)                 0.000000000000000E+00
(PID.TID 0000.0001)     ;
(PID.TID 0000.0001) PTRACERS_diffK4 = /* Biharmonic Diffusivity */
(PID.TID 0000.0001)                 0.000000000000000E+00
(PID.TID 0000.0001)     ;
(PID.TID 0000.0001) PTRACERS_diffKrNr = /* Vertical Diffusivity */
(PID.TID 0000.0001)    35 @  1.000000000000000E-05              /* K =  1: 35 */
(PID.TID 0000.0001)     ;
(PID.TID 0000.0001) PTRACERS_useGMRedi = /* apply GM-Redi */
(PID.TID 0000.0001)                   F
(PID.TID 0000.0001)     ;
(PID.TID 0000.0001) PTRACERS_useDWNSLP = /* apply DOWN-SLOPE Flow */
(PID.TID 0000.0001)                   F
(PID.TID 0000.0001)     ;
(PID.TID 0000.0001) PTRACERS_useKPP = /* apply KPP scheme */
(PID.TID 0000.0001)                   T
(PID.TID 0000.0001)     ;
(PID.TID 0000.0001) PTRACERS_ref = /* Reference vertical profile */
(PID.TID 0000.0001)    35 @  0.000000000000000E+00              /* K =  1: 35 */
(PID.TID 0000.0001)     ;
(PID.TID 0000.0001) PTRACERS_EvPrRn =/* tracer conc. in Evap. & Rain */
(PID.TID 0000.0001)                 1.234567000000000E+05
(PID.TID 0000.0001)     ;
(PID.TID 0000.0001)  -----------------------------------
(PID.TID 0000.0001)  tracer number :   61
(PID.TID 0000.0001) PTRACERS_names = /* Tracer short name */
(PID.TID 0000.0001)               'BIO_4_008'
(PID.TID 0000.0001)     ;
(PID.TID 0000.0001) PTRACERS_long_names = /* Tracer long name */
(PID.TID 0000.0001)               ''
(PID.TID 0000.0001)     ;
(PID.TID 0000.0001) PTRACERS_ioLabel = /* tracer IO Label */
(PID.TID 0000.0001)               '61'
(PID.TID 0000.0001)     ;
(PID.TID 0000.0001) PTRACERS_advScheme = /* Advection Scheme */
(PID.TID 0000.0001)                      33
(PID.TID 0000.0001)     ;
(PID.TID 0000.0001) PTRACERS_SOM_Advection = /* tracer uses SOM advection scheme */
(PID.TID 0000.0001)                   F
(PID.TID 0000.0001)     ;
(PID.TID 0000.0001) PTRACERS_ImplVertAdv = /* implicit vert. advection flag */
(PID.TID 0000.0001)                   F
(PID.TID 0000.0001)     ;
(PID.TID 0000.0001) PTRACERS_diffKh = /* Laplacian Diffusivity */
(PID.TID 0000.0001)                 0.000000000000000E+00
(PID.TID 0000.0001)     ;
(PID.TID 0000.0001) PTRACERS_diffK4 = /* Biharmonic Diffusivity */
(PID.TID 0000.0001)                 0.000000000000000E+00
(PID.TID 0000.0001)     ;
(PID.TID 0000.0001) PTRACERS_diffKrNr = /* Vertical Diffusivity */
(PID.TID 0000.0001)    35 @  1.000000000000000E-05              /* K =  1: 35 */
(PID.TID 0000.0001)     ;
(PID.TID 0000.0001) PTRACERS_useGMRedi = /* apply GM-Redi */
(PID.TID 0000.0001)                   F
(PID.TID 0000.0001)     ;
(PID.TID 0000.0001) PTRACERS_useDWNSLP = /* apply DOWN-SLOPE Flow */
(PID.TID 0000.0001)                   F
(PID.TID 0000.0001)     ;
(PID.TID 0000.0001) PTRACERS_useKPP = /* apply KPP scheme */
(PID.TID 0000.0001)                   T
(PID.TID 0000.0001)     ;
(PID.TID 0000.0001) PTRACERS_ref = /* Reference vertical profile */
(PID.TID 0000.0001)    35 @  0.000000000000000E+00              /* K =  1: 35 */
(PID.TID 0000.0001)     ;
(PID.TID 0000.0001) PTRACERS_EvPrRn =/* tracer conc. in Evap. & Rain */
(PID.TID 0000.0001)                 1.234567000000000E+05
(PID.TID 0000.0001)     ;
(PID.TID 0000.0001)  -----------------------------------
(PID.TID 0000.0001)  tracer number :   62
(PID.TID 0000.0001) PTRACERS_names = /* Tracer short name */
(PID.TID 0000.0001)               'BIO_4_009'
(PID.TID 0000.0001)     ;
(PID.TID 0000.0001) PTRACERS_long_names = /* Tracer long name */
(PID.TID 0000.0001)               ''
(PID.TID 0000.0001)     ;
(PID.TID 0000.0001) PTRACERS_ioLabel = /* tracer IO Label */
(PID.TID 0000.0001)               '62'
(PID.TID 0000.0001)     ;
(PID.TID 0000.0001) PTRACERS_advScheme = /* Advection Scheme */
(PID.TID 0000.0001)                      33
(PID.TID 0000.0001)     ;
(PID.TID 0000.0001) PTRACERS_SOM_Advection = /* tracer uses SOM advection scheme */
(PID.TID 0000.0001)                   F
(PID.TID 0000.0001)     ;
(PID.TID 0000.0001) PTRACERS_ImplVertAdv = /* implicit vert. advection flag */
(PID.TID 0000.0001)                   F
(PID.TID 0000.0001)     ;
(PID.TID 0000.0001) PTRACERS_diffKh = /* Laplacian Diffusivity */
(PID.TID 0000.0001)                 0.000000000000000E+00
(PID.TID 0000.0001)     ;
(PID.TID 0000.0001) PTRACERS_diffK4 = /* Biharmonic Diffusivity */
(PID.TID 0000.0001)                 0.000000000000000E+00
(PID.TID 0000.0001)     ;
(PID.TID 0000.0001) PTRACERS_diffKrNr = /* Vertical Diffusivity */
(PID.TID 0000.0001)    35 @  1.000000000000000E-05              /* K =  1: 35 */
(PID.TID 0000.0001)     ;
(PID.TID 0000.0001) PTRACERS_useGMRedi = /* apply GM-Redi */
(PID.TID 0000.0001)                   F
(PID.TID 0000.0001)     ;
(PID.TID 0000.0001) PTRACERS_useDWNSLP = /* apply DOWN-SLOPE Flow */
(PID.TID 0000.0001)                   F
(PID.TID 0000.0001)     ;
(PID.TID 0000.0001) PTRACERS_useKPP = /* apply KPP scheme */
(PID.TID 0000.0001)                   T
(PID.TID 0000.0001)     ;
(PID.TID 0000.0001) PTRACERS_ref = /* Reference vertical profile */
(PID.TID 0000.0001)    35 @  0.000000000000000E+00              /* K =  1: 35 */
(PID.TID 0000.0001)     ;
(PID.TID 0000.0001) PTRACERS_EvPrRn =/* tracer conc. in Evap. & Rain */
(PID.TID 0000.0001)                 1.234567000000000E+05
(PID.TID 0000.0001)     ;
(PID.TID 0000.0001)  -----------------------------------
(PID.TID 0000.0001)  tracer number :   63
(PID.TID 0000.0001) PTRACERS_names = /* Tracer short name */
(PID.TID 0000.0001)               'BIO_4_010'
(PID.TID 0000.0001)     ;
(PID.TID 0000.0001) PTRACERS_long_names = /* Tracer long name */
(PID.TID 0000.0001)               ''
(PID.TID 0000.0001)     ;
(PID.TID 0000.0001) PTRACERS_ioLabel = /* tracer IO Label */
(PID.TID 0000.0001)               '63'
(PID.TID 0000.0001)     ;
(PID.TID 0000.0001) PTRACERS_advScheme = /* Advection Scheme */
(PID.TID 0000.0001)                      33
(PID.TID 0000.0001)     ;
(PID.TID 0000.0001) PTRACERS_SOM_Advection = /* tracer uses SOM advection scheme */
(PID.TID 0000.0001)                   F
(PID.TID 0000.0001)     ;
(PID.TID 0000.0001) PTRACERS_ImplVertAdv = /* implicit vert. advection flag */
(PID.TID 0000.0001)                   F
(PID.TID 0000.0001)     ;
(PID.TID 0000.0001) PTRACERS_diffKh = /* Laplacian Diffusivity */
(PID.TID 0000.0001)                 0.000000000000000E+00
(PID.TID 0000.0001)     ;
(PID.TID 0000.0001) PTRACERS_diffK4 = /* Biharmonic Diffusivity */
(PID.TID 0000.0001)                 0.000000000000000E+00
(PID.TID 0000.0001)     ;
(PID.TID 0000.0001) PTRACERS_diffKrNr = /* Vertical Diffusivity */
(PID.TID 0000.0001)    35 @  1.000000000000000E-05              /* K =  1: 35 */
(PID.TID 0000.0001)     ;
(PID.TID 0000.0001) PTRACERS_useGMRedi = /* apply GM-Redi */
(PID.TID 0000.0001)                   F
(PID.TID 0000.0001)     ;
(PID.TID 0000.0001) PTRACERS_useDWNSLP = /* apply DOWN-SLOPE Flow */
(PID.TID 0000.0001)                   F
(PID.TID 0000.0001)     ;
(PID.TID 0000.0001) PTRACERS_useKPP = /* apply KPP scheme */
(PID.TID 0000.0001)                   T
(PID.TID 0000.0001)     ;
(PID.TID 0000.0001) PTRACERS_ref = /* Reference vertical profile */
(PID.TID 0000.0001)    35 @  0.000000000000000E+00              /* K =  1: 35 */
(PID.TID 0000.0001)     ;
(PID.TID 0000.0001) PTRACERS_EvPrRn =/* tracer conc. in Evap. & Rain */
(PID.TID 0000.0001)                 1.234567000000000E+05
(PID.TID 0000.0001)     ;
(PID.TID 0000.0001)  -----------------------------------
(PID.TID 0000.0001)  tracer number :   64
(PID.TID 0000.0001) PTRACERS_names = /* Tracer short name */
(PID.TID 0000.0001)               'BIO_4_011'
(PID.TID 0000.0001)     ;
(PID.TID 0000.0001) PTRACERS_long_names = /* Tracer long name */
(PID.TID 0000.0001)               ''
(PID.TID 0000.0001)     ;
(PID.TID 0000.0001) PTRACERS_ioLabel = /* tracer IO Label */
(PID.TID 0000.0001)               '64'
(PID.TID 0000.0001)     ;
(PID.TID 0000.0001) PTRACERS_advScheme = /* Advection Scheme */
(PID.TID 0000.0001)                      33
(PID.TID 0000.0001)     ;
(PID.TID 0000.0001) PTRACERS_SOM_Advection = /* tracer uses SOM advection scheme */
(PID.TID 0000.0001)                   F
(PID.TID 0000.0001)     ;
(PID.TID 0000.0001) PTRACERS_ImplVertAdv = /* implicit vert. advection flag */
(PID.TID 0000.0001)                   F
(PID.TID 0000.0001)     ;
(PID.TID 0000.0001) PTRACERS_diffKh = /* Laplacian Diffusivity */
(PID.TID 0000.0001)                 0.000000000000000E+00
(PID.TID 0000.0001)     ;
(PID.TID 0000.0001) PTRACERS_diffK4 = /* Biharmonic Diffusivity */
(PID.TID 0000.0001)                 0.000000000000000E+00
(PID.TID 0000.0001)     ;
(PID.TID 0000.0001) PTRACERS_diffKrNr = /* Vertical Diffusivity */
(PID.TID 0000.0001)    35 @  1.000000000000000E-05              /* K =  1: 35 */
(PID.TID 0000.0001)     ;
(PID.TID 0000.0001) PTRACERS_useGMRedi = /* apply GM-Redi */
(PID.TID 0000.0001)                   F
(PID.TID 0000.0001)     ;
(PID.TID 0000.0001) PTRACERS_useDWNSLP = /* apply DOWN-SLOPE Flow */
(PID.TID 0000.0001)                   F
(PID.TID 0000.0001)     ;
(PID.TID 0000.0001) PTRACERS_useKPP = /* apply KPP scheme */
(PID.TID 0000.0001)                   T
(PID.TID 0000.0001)     ;
(PID.TID 0000.0001) PTRACERS_ref = /* Reference vertical profile */
(PID.TID 0000.0001)    35 @  0.000000000000000E+00              /* K =  1: 35 */
(PID.TID 0000.0001)     ;
(PID.TID 0000.0001) PTRACERS_EvPrRn =/* tracer conc. in Evap. & Rain */
(PID.TID 0000.0001)                 1.234567000000000E+05
(PID.TID 0000.0001)     ;
(PID.TID 0000.0001)  -----------------------------------
(PID.TID 0000.0001)  tracer number :   65
(PID.TID 0000.0001) PTRACERS_names = /* Tracer short name */
(PID.TID 0000.0001)               'BIO_4_012'
(PID.TID 0000.0001)     ;
(PID.TID 0000.0001) PTRACERS_long_names = /* Tracer long name */
(PID.TID 0000.0001)               ''
(PID.TID 0000.0001)     ;
(PID.TID 0000.0001) PTRACERS_ioLabel = /* tracer IO Label */
(PID.TID 0000.0001)               '65'
(PID.TID 0000.0001)     ;
(PID.TID 0000.0001) PTRACERS_advScheme = /* Advection Scheme */
(PID.TID 0000.0001)                      33
(PID.TID 0000.0001)     ;
(PID.TID 0000.0001) PTRACERS_SOM_Advection = /* tracer uses SOM advection scheme */
(PID.TID 0000.0001)                   F
(PID.TID 0000.0001)     ;
(PID.TID 0000.0001) PTRACERS_ImplVertAdv = /* implicit vert. advection flag */
(PID.TID 0000.0001)                   F
(PID.TID 0000.0001)     ;
(PID.TID 0000.0001) PTRACERS_diffKh = /* Laplacian Diffusivity */
(PID.TID 0000.0001)                 0.000000000000000E+00
(PID.TID 0000.0001)     ;
(PID.TID 0000.0001) PTRACERS_diffK4 = /* Biharmonic Diffusivity */
(PID.TID 0000.0001)                 0.000000000000000E+00
(PID.TID 0000.0001)     ;
(PID.TID 0000.0001) PTRACERS_diffKrNr = /* Vertical Diffusivity */
(PID.TID 0000.0001)    35 @  1.000000000000000E-05              /* K =  1: 35 */
(PID.TID 0000.0001)     ;
(PID.TID 0000.0001) PTRACERS_useGMRedi = /* apply GM-Redi */
(PID.TID 0000.0001)                   F
(PID.TID 0000.0001)     ;
(PID.TID 0000.0001) PTRACERS_useDWNSLP = /* apply DOWN-SLOPE Flow */
(PID.TID 0000.0001)                   F
(PID.TID 0000.0001)     ;
(PID.TID 0000.0001) PTRACERS_useKPP = /* apply KPP scheme */
(PID.TID 0000.0001)                   T
(PID.TID 0000.0001)     ;
(PID.TID 0000.0001) PTRACERS_ref = /* Reference vertical profile */
(PID.TID 0000.0001)    35 @  0.000000000000000E+00              /* K =  1: 35 */
(PID.TID 0000.0001)     ;
(PID.TID 0000.0001) PTRACERS_EvPrRn =/* tracer conc. in Evap. & Rain */
(PID.TID 0000.0001)                 1.234567000000000E+05
(PID.TID 0000.0001)     ;
(PID.TID 0000.0001)  -----------------------------------
(PID.TID 0000.0001)  tracer number :   66
(PID.TID 0000.0001) PTRACERS_names = /* Tracer short name */
(PID.TID 0000.0001)               'BIO_4_013'
(PID.TID 0000.0001)     ;
(PID.TID 0000.0001) PTRACERS_long_names = /* Tracer long name */
(PID.TID 0000.0001)               ''
(PID.TID 0000.0001)     ;
(PID.TID 0000.0001) PTRACERS_ioLabel = /* tracer IO Label */
(PID.TID 0000.0001)               '66'
(PID.TID 0000.0001)     ;
(PID.TID 0000.0001) PTRACERS_advScheme = /* Advection Scheme */
(PID.TID 0000.0001)                      33
(PID.TID 0000.0001)     ;
(PID.TID 0000.0001) PTRACERS_SOM_Advection = /* tracer uses SOM advection scheme */
(PID.TID 0000.0001)                   F
(PID.TID 0000.0001)     ;
(PID.TID 0000.0001) PTRACERS_ImplVertAdv = /* implicit vert. advection flag */
(PID.TID 0000.0001)                   F
(PID.TID 0000.0001)     ;
(PID.TID 0000.0001) PTRACERS_diffKh = /* Laplacian Diffusivity */
(PID.TID 0000.0001)                 0.000000000000000E+00
(PID.TID 0000.0001)     ;
(PID.TID 0000.0001) PTRACERS_diffK4 = /* Biharmonic Diffusivity */
(PID.TID 0000.0001)                 0.000000000000000E+00
(PID.TID 0000.0001)     ;
(PID.TID 0000.0001) PTRACERS_diffKrNr = /* Vertical Diffusivity */
(PID.TID 0000.0001)    35 @  1.000000000000000E-05              /* K =  1: 35 */
(PID.TID 0000.0001)     ;
(PID.TID 0000.0001) PTRACERS_useGMRedi = /* apply GM-Redi */
(PID.TID 0000.0001)                   F
(PID.TID 0000.0001)     ;
(PID.TID 0000.0001) PTRACERS_useDWNSLP = /* apply DOWN-SLOPE Flow */
(PID.TID 0000.0001)                   F
(PID.TID 0000.0001)     ;
(PID.TID 0000.0001) PTRACERS_useKPP = /* apply KPP scheme */
(PID.TID 0000.0001)                   T
(PID.TID 0000.0001)     ;
(PID.TID 0000.0001) PTRACERS_ref = /* Reference vertical profile */
(PID.TID 0000.0001)    35 @  0.000000000000000E+00              /* K =  1: 35 */
(PID.TID 0000.0001)     ;
(PID.TID 0000.0001) PTRACERS_EvPrRn =/* tracer conc. in Evap. & Rain */
(PID.TID 0000.0001)                 1.234567000000000E+05
(PID.TID 0000.0001)     ;
(PID.TID 0000.0001)  -----------------------------------
(PID.TID 0000.0001)  tracer number :   67
(PID.TID 0000.0001) PTRACERS_names = /* Tracer short name */
(PID.TID 0000.0001)               'BIO_4_014'
(PID.TID 0000.0001)     ;
(PID.TID 0000.0001) PTRACERS_long_names = /* Tracer long name */
(PID.TID 0000.0001)               ''
(PID.TID 0000.0001)     ;
(PID.TID 0000.0001) PTRACERS_ioLabel = /* tracer IO Label */
(PID.TID 0000.0001)               '67'
(PID.TID 0000.0001)     ;
(PID.TID 0000.0001) PTRACERS_advScheme = /* Advection Scheme */
(PID.TID 0000.0001)                      33
(PID.TID 0000.0001)     ;
(PID.TID 0000.0001) PTRACERS_SOM_Advection = /* tracer uses SOM advection scheme */
(PID.TID 0000.0001)                   F
(PID.TID 0000.0001)     ;
(PID.TID 0000.0001) PTRACERS_ImplVertAdv = /* implicit vert. advection flag */
(PID.TID 0000.0001)                   F
(PID.TID 0000.0001)     ;
(PID.TID 0000.0001) PTRACERS_diffKh = /* Laplacian Diffusivity */
(PID.TID 0000.0001)                 0.000000000000000E+00
(PID.TID 0000.0001)     ;
(PID.TID 0000.0001) PTRACERS_diffK4 = /* Biharmonic Diffusivity */
(PID.TID 0000.0001)                 0.000000000000000E+00
(PID.TID 0000.0001)     ;
(PID.TID 0000.0001) PTRACERS_diffKrNr = /* Vertical Diffusivity */
(PID.TID 0000.0001)    35 @  1.000000000000000E-05              /* K =  1: 35 */
(PID.TID 0000.0001)     ;
(PID.TID 0000.0001) PTRACERS_useGMRedi = /* apply GM-Redi */
(PID.TID 0000.0001)                   F
(PID.TID 0000.0001)     ;
(PID.TID 0000.0001) PTRACERS_useDWNSLP = /* apply DOWN-SLOPE Flow */
(PID.TID 0000.0001)                   F
(PID.TID 0000.0001)     ;
(PID.TID 0000.0001) PTRACERS_useKPP = /* apply KPP scheme */
(PID.TID 0000.0001)                   T
(PID.TID 0000.0001)     ;
(PID.TID 0000.0001) PTRACERS_ref = /* Reference vertical profile */
(PID.TID 0000.0001)    35 @  0.000000000000000E+00              /* K =  1: 35 */
(PID.TID 0000.0001)     ;
(PID.TID 0000.0001) PTRACERS_EvPrRn =/* tracer conc. in Evap. & Rain */
(PID.TID 0000.0001)                 1.234567000000000E+05
(PID.TID 0000.0001)     ;
(PID.TID 0000.0001)  -----------------------------------
(PID.TID 0000.0001)  tracer number :   68
(PID.TID 0000.0001) PTRACERS_names = /* Tracer short name */
(PID.TID 0000.0001)               'BIO_4_015'
(PID.TID 0000.0001)     ;
(PID.TID 0000.0001) PTRACERS_long_names = /* Tracer long name */
(PID.TID 0000.0001)               ''
(PID.TID 0000.0001)     ;
(PID.TID 0000.0001) PTRACERS_ioLabel = /* tracer IO Label */
(PID.TID 0000.0001)               '68'
(PID.TID 0000.0001)     ;
(PID.TID 0000.0001) PTRACERS_advScheme = /* Advection Scheme */
(PID.TID 0000.0001)                      33
(PID.TID 0000.0001)     ;
(PID.TID 0000.0001) PTRACERS_SOM_Advection = /* tracer uses SOM advection scheme */
(PID.TID 0000.0001)                   F
(PID.TID 0000.0001)     ;
(PID.TID 0000.0001) PTRACERS_ImplVertAdv = /* implicit vert. advection flag */
(PID.TID 0000.0001)                   F
(PID.TID 0000.0001)     ;
(PID.TID 0000.0001) PTRACERS_diffKh = /* Laplacian Diffusivity */
(PID.TID 0000.0001)                 0.000000000000000E+00
(PID.TID 0000.0001)     ;
(PID.TID 0000.0001) PTRACERS_diffK4 = /* Biharmonic Diffusivity */
(PID.TID 0000.0001)                 0.000000000000000E+00
(PID.TID 0000.0001)     ;
(PID.TID 0000.0001) PTRACERS_diffKrNr = /* Vertical Diffusivity */
(PID.TID 0000.0001)    35 @  1.000000000000000E-05              /* K =  1: 35 */
(PID.TID 0000.0001)     ;
(PID.TID 0000.0001) PTRACERS_useGMRedi = /* apply GM-Redi */
(PID.TID 0000.0001)                   F
(PID.TID 0000.0001)     ;
(PID.TID 0000.0001) PTRACERS_useDWNSLP = /* apply DOWN-SLOPE Flow */
(PID.TID 0000.0001)                   F
(PID.TID 0000.0001)     ;
(PID.TID 0000.0001) PTRACERS_useKPP = /* apply KPP scheme */
(PID.TID 0000.0001)                   T
(PID.TID 0000.0001)     ;
(PID.TID 0000.0001) PTRACERS_ref = /* Reference vertical profile */
(PID.TID 0000.0001)    35 @  0.000000000000000E+00              /* K =  1: 35 */
(PID.TID 0000.0001)     ;
(PID.TID 0000.0001) PTRACERS_EvPrRn =/* tracer conc. in Evap. & Rain */
(PID.TID 0000.0001)                 1.234567000000000E+05
(PID.TID 0000.0001)     ;
(PID.TID 0000.0001)  -----------------------------------
(PID.TID 0000.0001)  tracer number :   69
(PID.TID 0000.0001) PTRACERS_names = /* Tracer short name */
(PID.TID 0000.0001)               'BIO_4_016'
(PID.TID 0000.0001)     ;
(PID.TID 0000.0001) PTRACERS_long_names = /* Tracer long name */
(PID.TID 0000.0001)               ''
(PID.TID 0000.0001)     ;
(PID.TID 0000.0001) PTRACERS_ioLabel = /* tracer IO Label */
(PID.TID 0000.0001)               '69'
(PID.TID 0000.0001)     ;
(PID.TID 0000.0001) PTRACERS_advScheme = /* Advection Scheme */
(PID.TID 0000.0001)                      33
(PID.TID 0000.0001)     ;
(PID.TID 0000.0001) PTRACERS_SOM_Advection = /* tracer uses SOM advection scheme */
(PID.TID 0000.0001)                   F
(PID.TID 0000.0001)     ;
(PID.TID 0000.0001) PTRACERS_ImplVertAdv = /* implicit vert. advection flag */
(PID.TID 0000.0001)                   F
(PID.TID 0000.0001)     ;
(PID.TID 0000.0001) PTRACERS_diffKh = /* Laplacian Diffusivity */
(PID.TID 0000.0001)                 0.000000000000000E+00
(PID.TID 0000.0001)     ;
(PID.TID 0000.0001) PTRACERS_diffK4 = /* Biharmonic Diffusivity */
(PID.TID 0000.0001)                 0.000000000000000E+00
(PID.TID 0000.0001)     ;
(PID.TID 0000.0001) PTRACERS_diffKrNr = /* Vertical Diffusivity */
(PID.TID 0000.0001)    35 @  1.000000000000000E-05              /* K =  1: 35 */
(PID.TID 0000.0001)     ;
(PID.TID 0000.0001) PTRACERS_useGMRedi = /* apply GM-Redi */
(PID.TID 0000.0001)                   F
(PID.TID 0000.0001)     ;
(PID.TID 0000.0001) PTRACERS_useDWNSLP = /* apply DOWN-SLOPE Flow */
(PID.TID 0000.0001)                   F
(PID.TID 0000.0001)     ;
(PID.TID 0000.0001) PTRACERS_useKPP = /* apply KPP scheme */
(PID.TID 0000.0001)                   T
(PID.TID 0000.0001)     ;
(PID.TID 0000.0001) PTRACERS_ref = /* Reference vertical profile */
(PID.TID 0000.0001)    35 @  0.000000000000000E+00              /* K =  1: 35 */
(PID.TID 0000.0001)     ;
(PID.TID 0000.0001) PTRACERS_EvPrRn =/* tracer conc. in Evap. & Rain */
(PID.TID 0000.0001)                 1.234567000000000E+05
(PID.TID 0000.0001)     ;
(PID.TID 0000.0001)  -----------------------------------
(PID.TID 0000.0001)  tracer number :   70
(PID.TID 0000.0001) PTRACERS_names = /* Tracer short name */
(PID.TID 0000.0001)               'OM_1_1'
(PID.TID 0000.0001)     ;
(PID.TID 0000.0001) PTRACERS_long_names = /* Tracer long name */
(PID.TID 0000.0001)               ''
(PID.TID 0000.0001)     ;
(PID.TID 0000.0001) PTRACERS_ioLabel = /* tracer IO Label */
(PID.TID 0000.0001)               '70'
(PID.TID 0000.0001)     ;
(PID.TID 0000.0001) PTRACERS_advScheme = /* Advection Scheme */
(PID.TID 0000.0001)                      33
(PID.TID 0000.0001)     ;
(PID.TID 0000.0001) PTRACERS_SOM_Advection = /* tracer uses SOM advection scheme */
(PID.TID 0000.0001)                   F
(PID.TID 0000.0001)     ;
(PID.TID 0000.0001) PTRACERS_ImplVertAdv = /* implicit vert. advection flag */
(PID.TID 0000.0001)                   F
(PID.TID 0000.0001)     ;
(PID.TID 0000.0001) PTRACERS_diffKh = /* Laplacian Diffusivity */
(PID.TID 0000.0001)                 0.000000000000000E+00
(PID.TID 0000.0001)     ;
(PID.TID 0000.0001) PTRACERS_diffK4 = /* Biharmonic Diffusivity */
(PID.TID 0000.0001)                 0.000000000000000E+00
(PID.TID 0000.0001)     ;
(PID.TID 0000.0001) PTRACERS_diffKrNr = /* Vertical Diffusivity */
(PID.TID 0000.0001)    35 @  1.000000000000000E-05              /* K =  1: 35 */
(PID.TID 0000.0001)     ;
(PID.TID 0000.0001) PTRACERS_useGMRedi = /* apply GM-Redi */
(PID.TID 0000.0001)                   F
(PID.TID 0000.0001)     ;
(PID.TID 0000.0001) PTRACERS_useDWNSLP = /* apply DOWN-SLOPE Flow */
(PID.TID 0000.0001)                   F
(PID.TID 0000.0001)     ;
(PID.TID 0000.0001) PTRACERS_useKPP = /* apply KPP scheme */
(PID.TID 0000.0001)                   T
(PID.TID 0000.0001)     ;
(PID.TID 0000.0001) PTRACERS_ref = /* Reference vertical profile */
(PID.TID 0000.0001)    35 @  0.000000000000000E+00              /* K =  1: 35 */
(PID.TID 0000.0001)     ;
(PID.TID 0000.0001) PTRACERS_EvPrRn =/* tracer conc. in Evap. & Rain */
(PID.TID 0000.0001)                 1.234567000000000E+05
(PID.TID 0000.0001)     ;
(PID.TID 0000.0001)  -----------------------------------
(PID.TID 0000.0001)  tracer number :   71
(PID.TID 0000.0001) PTRACERS_names = /* Tracer short name */
(PID.TID 0000.0001)               'OM_1_2'
(PID.TID 0000.0001)     ;
(PID.TID 0000.0001) PTRACERS_long_names = /* Tracer long name */
(PID.TID 0000.0001)               ''
(PID.TID 0000.0001)     ;
(PID.TID 0000.0001) PTRACERS_ioLabel = /* tracer IO Label */
(PID.TID 0000.0001)               '71'
(PID.TID 0000.0001)     ;
(PID.TID 0000.0001) PTRACERS_advScheme = /* Advection Scheme */
(PID.TID 0000.0001)                      33
(PID.TID 0000.0001)     ;
(PID.TID 0000.0001) PTRACERS_SOM_Advection = /* tracer uses SOM advection scheme */
(PID.TID 0000.0001)                   F
(PID.TID 0000.0001)     ;
(PID.TID 0000.0001) PTRACERS_ImplVertAdv = /* implicit vert. advection flag */
(PID.TID 0000.0001)                   F
(PID.TID 0000.0001)     ;
(PID.TID 0000.0001) PTRACERS_diffKh = /* Laplacian Diffusivity */
(PID.TID 0000.0001)                 0.000000000000000E+00
(PID.TID 0000.0001)     ;
(PID.TID 0000.0001) PTRACERS_diffK4 = /* Biharmonic Diffusivity */
(PID.TID 0000.0001)                 0.000000000000000E+00
(PID.TID 0000.0001)     ;
(PID.TID 0000.0001) PTRACERS_diffKrNr = /* Vertical Diffusivity */
(PID.TID 0000.0001)    35 @  1.000000000000000E-05              /* K =  1: 35 */
(PID.TID 0000.0001)     ;
(PID.TID 0000.0001) PTRACERS_useGMRedi = /* apply GM-Redi */
(PID.TID 0000.0001)                   F
(PID.TID 0000.0001)     ;
(PID.TID 0000.0001) PTRACERS_useDWNSLP = /* apply DOWN-SLOPE Flow */
(PID.TID 0000.0001)                   F
(PID.TID 0000.0001)     ;
(PID.TID 0000.0001) PTRACERS_useKPP = /* apply KPP scheme */
(PID.TID 0000.0001)                   T
(PID.TID 0000.0001)     ;
(PID.TID 0000.0001) PTRACERS_ref = /* Reference vertical profile */
(PID.TID 0000.0001)    35 @  0.000000000000000E+00              /* K =  1: 35 */
(PID.TID 0000.0001)     ;
(PID.TID 0000.0001) PTRACERS_EvPrRn =/* tracer conc. in Evap. & Rain */
(PID.TID 0000.0001)                 1.234567000000000E+05
(PID.TID 0000.0001)     ;
(PID.TID 0000.0001)  -----------------------------------
(PID.TID 0000.0001)  tracer number :   72
(PID.TID 0000.0001) PTRACERS_names = /* Tracer short name */
(PID.TID 0000.0001)               'OM_2_1'
(PID.TID 0000.0001)     ;
(PID.TID 0000.0001) PTRACERS_long_names = /* Tracer long name */
(PID.TID 0000.0001)               ''
(PID.TID 0000.0001)     ;
(PID.TID 0000.0001) PTRACERS_ioLabel = /* tracer IO Label */
(PID.TID 0000.0001)               '72'
(PID.TID 0000.0001)     ;
(PID.TID 0000.0001) PTRACERS_advScheme = /* Advection Scheme */
(PID.TID 0000.0001)                      33
(PID.TID 0000.0001)     ;
(PID.TID 0000.0001) PTRACERS_SOM_Advection = /* tracer uses SOM advection scheme */
(PID.TID 0000.0001)                   F
(PID.TID 0000.0001)     ;
(PID.TID 0000.0001) PTRACERS_ImplVertAdv = /* implicit vert. advection flag */
(PID.TID 0000.0001)                   F
(PID.TID 0000.0001)     ;
(PID.TID 0000.0001) PTRACERS_diffKh = /* Laplacian Diffusivity */
(PID.TID 0000.0001)                 0.000000000000000E+00
(PID.TID 0000.0001)     ;
(PID.TID 0000.0001) PTRACERS_diffK4 = /* Biharmonic Diffusivity */
(PID.TID 0000.0001)                 0.000000000000000E+00
(PID.TID 0000.0001)     ;
(PID.TID 0000.0001) PTRACERS_diffKrNr = /* Vertical Diffusivity */
(PID.TID 0000.0001)    35 @  1.000000000000000E-05              /* K =  1: 35 */
(PID.TID 0000.0001)     ;
(PID.TID 0000.0001) PTRACERS_useGMRedi = /* apply GM-Redi */
(PID.TID 0000.0001)                   F
(PID.TID 0000.0001)     ;
(PID.TID 0000.0001) PTRACERS_useDWNSLP = /* apply DOWN-SLOPE Flow */
(PID.TID 0000.0001)                   F
(PID.TID 0000.0001)     ;
(PID.TID 0000.0001) PTRACERS_useKPP = /* apply KPP scheme */
(PID.TID 0000.0001)                   T
(PID.TID 0000.0001)     ;
(PID.TID 0000.0001) PTRACERS_ref = /* Reference vertical profile */
(PID.TID 0000.0001)    35 @  0.000000000000000E+00              /* K =  1: 35 */
(PID.TID 0000.0001)     ;
(PID.TID 0000.0001) PTRACERS_EvPrRn =/* tracer conc. in Evap. & Rain */
(PID.TID 0000.0001)                 1.234567000000000E+05
(PID.TID 0000.0001)     ;
(PID.TID 0000.0001)  -----------------------------------
(PID.TID 0000.0001)  tracer number :   73
(PID.TID 0000.0001) PTRACERS_names = /* Tracer short name */
(PID.TID 0000.0001)               'OM_2_2'
(PID.TID 0000.0001)     ;
(PID.TID 0000.0001) PTRACERS_long_names = /* Tracer long name */
(PID.TID 0000.0001)               ''
(PID.TID 0000.0001)     ;
(PID.TID 0000.0001) PTRACERS_ioLabel = /* tracer IO Label */
(PID.TID 0000.0001)               '73'
(PID.TID 0000.0001)     ;
(PID.TID 0000.0001) PTRACERS_advScheme = /* Advection Scheme */
(PID.TID 0000.0001)                      33
(PID.TID 0000.0001)     ;
(PID.TID 0000.0001) PTRACERS_SOM_Advection = /* tracer uses SOM advection scheme */
(PID.TID 0000.0001)                   F
(PID.TID 0000.0001)     ;
(PID.TID 0000.0001) PTRACERS_ImplVertAdv = /* implicit vert. advection flag */
(PID.TID 0000.0001)                   F
(PID.TID 0000.0001)     ;
(PID.TID 0000.0001) PTRACERS_diffKh = /* Laplacian Diffusivity */
(PID.TID 0000.0001)                 0.000000000000000E+00
(PID.TID 0000.0001)     ;
(PID.TID 0000.0001) PTRACERS_diffK4 = /* Biharmonic Diffusivity */
(PID.TID 0000.0001)                 0.000000000000000E+00
(PID.TID 0000.0001)     ;
(PID.TID 0000.0001) PTRACERS_diffKrNr = /* Vertical Diffusivity */
(PID.TID 0000.0001)    35 @  1.000000000000000E-05              /* K =  1: 35 */
(PID.TID 0000.0001)     ;
(PID.TID 0000.0001) PTRACERS_useGMRedi = /* apply GM-Redi */
(PID.TID 0000.0001)                   F
(PID.TID 0000.0001)     ;
(PID.TID 0000.0001) PTRACERS_useDWNSLP = /* apply DOWN-SLOPE Flow */
(PID.TID 0000.0001)                   F
(PID.TID 0000.0001)     ;
(PID.TID 0000.0001) PTRACERS_useKPP = /* apply KPP scheme */
(PID.TID 0000.0001)                   T
(PID.TID 0000.0001)     ;
(PID.TID 0000.0001) PTRACERS_ref = /* Reference vertical profile */
(PID.TID 0000.0001)    35 @  0.000000000000000E+00              /* K =  1: 35 */
(PID.TID 0000.0001)     ;
(PID.TID 0000.0001) PTRACERS_EvPrRn =/* tracer conc. in Evap. & Rain */
(PID.TID 0000.0001)                 1.234567000000000E+05
(PID.TID 0000.0001)     ;
(PID.TID 0000.0001)  -----------------------------------
(PID.TID 0000.0001)  tracer number :   74
(PID.TID 0000.0001) PTRACERS_names = /* Tracer short name */
(PID.TID 0000.0001)               'OM_3_1'
(PID.TID 0000.0001)     ;
(PID.TID 0000.0001) PTRACERS_long_names = /* Tracer long name */
(PID.TID 0000.0001)               ''
(PID.TID 0000.0001)     ;
(PID.TID 0000.0001) PTRACERS_ioLabel = /* tracer IO Label */
(PID.TID 0000.0001)               '74'
(PID.TID 0000.0001)     ;
(PID.TID 0000.0001) PTRACERS_advScheme = /* Advection Scheme */
(PID.TID 0000.0001)                      33
(PID.TID 0000.0001)     ;
(PID.TID 0000.0001) PTRACERS_SOM_Advection = /* tracer uses SOM advection scheme */
(PID.TID 0000.0001)                   F
(PID.TID 0000.0001)     ;
(PID.TID 0000.0001) PTRACERS_ImplVertAdv = /* implicit vert. advection flag */
(PID.TID 0000.0001)                   F
(PID.TID 0000.0001)     ;
(PID.TID 0000.0001) PTRACERS_diffKh = /* Laplacian Diffusivity */
(PID.TID 0000.0001)                 0.000000000000000E+00
(PID.TID 0000.0001)     ;
(PID.TID 0000.0001) PTRACERS_diffK4 = /* Biharmonic Diffusivity */
(PID.TID 0000.0001)                 0.000000000000000E+00
(PID.TID 0000.0001)     ;
(PID.TID 0000.0001) PTRACERS_diffKrNr = /* Vertical Diffusivity */
(PID.TID 0000.0001)    35 @  1.000000000000000E-05              /* K =  1: 35 */
(PID.TID 0000.0001)     ;
(PID.TID 0000.0001) PTRACERS_useGMRedi = /* apply GM-Redi */
(PID.TID 0000.0001)                   F
(PID.TID 0000.0001)     ;
(PID.TID 0000.0001) PTRACERS_useDWNSLP = /* apply DOWN-SLOPE Flow */
(PID.TID 0000.0001)                   F
(PID.TID 0000.0001)     ;
(PID.TID 0000.0001) PTRACERS_useKPP = /* apply KPP scheme */
(PID.TID 0000.0001)                   T
(PID.TID 0000.0001)     ;
(PID.TID 0000.0001) PTRACERS_ref = /* Reference vertical profile */
(PID.TID 0000.0001)    35 @  0.000000000000000E+00              /* K =  1: 35 */
(PID.TID 0000.0001)     ;
(PID.TID 0000.0001) PTRACERS_EvPrRn =/* tracer conc. in Evap. & Rain */
(PID.TID 0000.0001)                 1.234567000000000E+05
(PID.TID 0000.0001)     ;
(PID.TID 0000.0001)  -----------------------------------
(PID.TID 0000.0001)  tracer number :   75
(PID.TID 0000.0001) PTRACERS_names = /* Tracer short name */
(PID.TID 0000.0001)               'OM_3_2'
(PID.TID 0000.0001)     ;
(PID.TID 0000.0001) PTRACERS_long_names = /* Tracer long name */
(PID.TID 0000.0001)               ''
(PID.TID 0000.0001)     ;
(PID.TID 0000.0001) PTRACERS_ioLabel = /* tracer IO Label */
(PID.TID 0000.0001)               '75'
(PID.TID 0000.0001)     ;
(PID.TID 0000.0001) PTRACERS_advScheme = /* Advection Scheme */
(PID.TID 0000.0001)                      33
(PID.TID 0000.0001)     ;
(PID.TID 0000.0001) PTRACERS_SOM_Advection = /* tracer uses SOM advection scheme */
(PID.TID 0000.0001)                   F
(PID.TID 0000.0001)     ;
(PID.TID 0000.0001) PTRACERS_ImplVertAdv = /* implicit vert. advection flag */
(PID.TID 0000.0001)                   F
(PID.TID 0000.0001)     ;
(PID.TID 0000.0001) PTRACERS_diffKh = /* Laplacian Diffusivity */
(PID.TID 0000.0001)                 0.000000000000000E+00
(PID.TID 0000.0001)     ;
(PID.TID 0000.0001) PTRACERS_diffK4 = /* Biharmonic Diffusivity */
(PID.TID 0000.0001)                 0.000000000000000E+00
(PID.TID 0000.0001)     ;
(PID.TID 0000.0001) PTRACERS_diffKrNr = /* Vertical Diffusivity */
(PID.TID 0000.0001)    35 @  1.000000000000000E-05              /* K =  1: 35 */
(PID.TID 0000.0001)     ;
(PID.TID 0000.0001) PTRACERS_useGMRedi = /* apply GM-Redi */
(PID.TID 0000.0001)                   F
(PID.TID 0000.0001)     ;
(PID.TID 0000.0001) PTRACERS_useDWNSLP = /* apply DOWN-SLOPE Flow */
(PID.TID 0000.0001)                   F
(PID.TID 0000.0001)     ;
(PID.TID 0000.0001) PTRACERS_useKPP = /* apply KPP scheme */
(PID.TID 0000.0001)                   T
(PID.TID 0000.0001)     ;
(PID.TID 0000.0001) PTRACERS_ref = /* Reference vertical profile */
(PID.TID 0000.0001)    35 @  0.000000000000000E+00              /* K =  1: 35 */
(PID.TID 0000.0001)     ;
(PID.TID 0000.0001) PTRACERS_EvPrRn =/* tracer conc. in Evap. & Rain */
(PID.TID 0000.0001)                 1.234567000000000E+05
(PID.TID 0000.0001)     ;
(PID.TID 0000.0001)  -----------------------------------
(PID.TID 0000.0001) GCHEM_CHECK: #define ALLOW_GCHEM
(PID.TID 0000.0001) QUOTA_CHECK: #define ALLOW_DARWIN
(PID.TID 0000.0001) QUOTA_CHECK: iPtr darwin PTRACERS_names
(PID.TID 0000.0001) // =======================================================
(PID.TID 0000.0001) QUOTA_CHECK:    1 inoganic nutrient (   1)  - DIC
(PID.TID 0000.0001) QUOTA_CHECK:    2 inoganic nutrient (   2)  - NO3
(PID.TID 0000.0001) QUOTA_CHECK:    3 inoganic nutrient (   3)  - NO2
(PID.TID 0000.0001) QUOTA_CHECK:    4 inoganic nutrient (   4)  - NH4
(PID.TID 0000.0001) QUOTA_CHECK:    5 inoganic nutrient (   5)  - FeT
(PID.TID 0000.0001) // =======================================================
(PID.TID 0000.0001) QUOTA_CHECK:    6 biomass (1, 1)    - BIO_1_001
(PID.TID 0000.0001) QUOTA_CHECK:    7 biomass (1, 2)    - BIO_1_002
(PID.TID 0000.0001) QUOTA_CHECK:    8 biomass (1, 3)    - BIO_1_003
(PID.TID 0000.0001) QUOTA_CHECK:    9 biomass (1, 4)    - BIO_1_004
(PID.TID 0000.0001) QUOTA_CHECK:   10 biomass (1, 5)    - BIO_1_005
(PID.TID 0000.0001) QUOTA_CHECK:   11 biomass (1, 6)    - BIO_1_006
(PID.TID 0000.0001) QUOTA_CHECK:   12 biomass (1, 7)    - BIO_1_007
(PID.TID 0000.0001) QUOTA_CHECK:   13 biomass (1, 8)    - BIO_1_008
(PID.TID 0000.0001) QUOTA_CHECK:   14 biomass (1, 9)    - BIO_1_009
(PID.TID 0000.0001) QUOTA_CHECK:   15 biomass (1,10)    - BIO_1_010
(PID.TID 0000.0001) QUOTA_CHECK:   16 biomass (1,11)    - BIO_1_011
(PID.TID 0000.0001) QUOTA_CHECK:   17 biomass (1,12)    - BIO_1_012
(PID.TID 0000.0001) QUOTA_CHECK:   18 biomass (1,13)    - BIO_1_013
(PID.TID 0000.0001) QUOTA_CHECK:   19 biomass (1,14)    - BIO_1_014
(PID.TID 0000.0001) QUOTA_CHECK:   20 biomass (1,15)    - BIO_1_015
(PID.TID 0000.0001) QUOTA_CHECK:   21 biomass (1,16)    - BIO_1_016
(PID.TID 0000.0001) QUOTA_CHECK:   22 biomass (2, 1)    - BIO_2_001
(PID.TID 0000.0001) QUOTA_CHECK:   23 biomass (2, 2)    - BIO_2_002
(PID.TID 0000.0001) QUOTA_CHECK:   24 biomass (2, 3)    - BIO_2_003
(PID.TID 0000.0001) QUOTA_CHECK:   25 biomass (2, 4)    - BIO_2_004
(PID.TID 0000.0001) QUOTA_CHECK:   26 biomass (2, 5)    - BIO_2_005
(PID.TID 0000.0001) QUOTA_CHECK:   27 biomass (2, 6)    - BIO_2_006
(PID.TID 0000.0001) QUOTA_CHECK:   28 biomass (2, 7)    - BIO_2_007
(PID.TID 0000.0001) QUOTA_CHECK:   29 biomass (2, 8)    - BIO_2_008
(PID.TID 0000.0001) QUOTA_CHECK:   30 biomass (2, 9)    - BIO_2_009
(PID.TID 0000.0001) QUOTA_CHECK:   31 biomass (2,10)    - BIO_2_010
(PID.TID 0000.0001) QUOTA_CHECK:   32 biomass (2,11)    - BIO_2_011
(PID.TID 0000.0001) QUOTA_CHECK:   33 biomass (2,12)    - BIO_2_012
(PID.TID 0000.0001) QUOTA_CHECK:   34 biomass (2,13)    - BIO_2_013
(PID.TID 0000.0001) QUOTA_CHECK:   35 biomass (2,14)    - BIO_2_014
(PID.TID 0000.0001) QUOTA_CHECK:   36 biomass (2,15)    - BIO_2_015
(PID.TID 0000.0001) QUOTA_CHECK:   37 biomass (2,16)    - BIO_2_016
(PID.TID 0000.0001) QUOTA_CHECK:   38 biomass (3, 1)    - BIO_3_001
(PID.TID 0000.0001) QUOTA_CHECK:   39 biomass (3, 2)    - BIO_3_002
(PID.TID 0000.0001) QUOTA_CHECK:   40 biomass (3, 3)    - BIO_3_003
(PID.TID 0000.0001) QUOTA_CHECK:   41 biomass (3, 4)    - BIO_3_004
(PID.TID 0000.0001) QUOTA_CHECK:   42 biomass (3, 5)    - BIO_3_005
(PID.TID 0000.0001) QUOTA_CHECK:   43 biomass (3, 6)    - BIO_3_006
(PID.TID 0000.0001) QUOTA_CHECK:   44 biomass (3, 7)    - BIO_3_007
(PID.TID 0000.0001) QUOTA_CHECK:   45 biomass (3, 8)    - BIO_3_008
(PID.TID 0000.0001) QUOTA_CHECK:   46 biomass (3, 9)    - BIO_3_009
(PID.TID 0000.0001) QUOTA_CHECK:   47 biomass (3,10)    - BIO_3_010
(PID.TID 0000.0001) QUOTA_CHECK:   48 biomass (3,11)    - BIO_3_011
(PID.TID 0000.0001) QUOTA_CHECK:   49 biomass (3,12)    - BIO_3_012
(PID.TID 0000.0001) QUOTA_CHECK:   50 biomass (3,13)    - BIO_3_013
(PID.TID 0000.0001) QUOTA_CHECK:   51 biomass (3,14)    - BIO_3_014
(PID.TID 0000.0001) QUOTA_CHECK:   52 biomass (3,15)    - BIO_3_015
(PID.TID 0000.0001) QUOTA_CHECK:   53 biomass (3,16)    - BIO_3_016
(PID.TID 0000.0001) QUOTA_CHECK:   54 biomass (4, 1)    - BIO_4_001
(PID.TID 0000.0001) QUOTA_CHECK:   55 biomass (4, 2)    - BIO_4_002
(PID.TID 0000.0001) QUOTA_CHECK:   56 biomass (4, 3)    - BIO_4_003
(PID.TID 0000.0001) QUOTA_CHECK:   57 biomass (4, 4)    - BIO_4_004
(PID.TID 0000.0001) QUOTA_CHECK:   58 biomass (4, 5)    - BIO_4_005
(PID.TID 0000.0001) QUOTA_CHECK:   59 biomass (4, 6)    - BIO_4_006
(PID.TID 0000.0001) QUOTA_CHECK:   60 biomass (4, 7)    - BIO_4_007
(PID.TID 0000.0001) QUOTA_CHECK:   61 biomass (4, 8)    - BIO_4_008
(PID.TID 0000.0001) QUOTA_CHECK:   62 biomass (4, 9)    - BIO_4_009
(PID.TID 0000.0001) QUOTA_CHECK:   63 biomass (4,10)    - BIO_4_010
(PID.TID 0000.0001) QUOTA_CHECK:   64 biomass (4,11)    - BIO_4_011
(PID.TID 0000.0001) QUOTA_CHECK:   65 biomass (4,12)    - BIO_4_012
(PID.TID 0000.0001) QUOTA_CHECK:   66 biomass (4,13)    - BIO_4_013
(PID.TID 0000.0001) QUOTA_CHECK:   67 biomass (4,14)    - BIO_4_014
(PID.TID 0000.0001) QUOTA_CHECK:   68 biomass (4,15)    - BIO_4_015
(PID.TID 0000.0001) QUOTA_CHECK:   69 biomass (4,16)    - BIO_4_016
(PID.TID 0000.0001) // =======================================================
(PID.TID 0000.0001) QUOTA_CHECK:   70 orgmat(1, 1)      - OM_1_1
(PID.TID 0000.0001) QUOTA_CHECK:   71 orgmat(1, 2)      - OM_1_2
(PID.TID 0000.0001) QUOTA_CHECK:   72 orgmat(2, 1)      - OM_2_1
(PID.TID 0000.0001) QUOTA_CHECK:   73 orgmat(2, 2)      - OM_2_2
(PID.TID 0000.0001) QUOTA_CHECK:   74 orgmat(3, 1)      - OM_3_1
(PID.TID 0000.0001) QUOTA_CHECK:   75 orgmat(3, 2)      - OM_3_2
(PID.TID 0000.0001) GAD_CHECK: #define ALLOW_GENERIC_ADVDIFF
(PID.TID 0000.0001) // =======================================================
(PID.TID 0000.0001) // CONFIG_CHECK : Normal End
(PID.TID 0000.0001) // =======================================================
(PID.TID 0000.0001) 
(PID.TID 0000.0001)  MDS_READ_FIELD: opening global file: ../input/input/loc1_temp_janprof.bin
(PID.TID 0000.0001)  MDS_READ_FIELD: opening global file: ../input/input/salt_uniform.bin
(PID.TID 0000.0001) Start initial hydrostatic pressure computation
(PID.TID 0000.0001) Pressure is predetermined for buoyancyRelation OCEANIC
(PID.TID 0000.0001) 
(PID.TID 0000.0001)  MDS_READ_FIELD: opening global file: ../input/input/wind_u_mon.bin
(PID.TID 0000.0001)  MDS_READ_FIELD: opening global file: ../input/input/wind_v_mon.bin
(PID.TID 0000.0001)  MDS_READ_FIELD: opening global file: ../input/input/loc1_temp_monsurf.bin
(PID.TID 0000.0001)  MDS_READ_FIELD: opening global file: ../input/input/loc1_DIC_annprof.bin
(PID.TID 0000.0001)  MDS_READ_FIELD: opening global file: ../input/input/loc1_nitr_janprof.bin
(PID.TID 0000.0001)  MDS_READ_FIELD: opening global file: ../input/input/loc1_NO2_run83_janprof.bin
(PID.TID 0000.0001)  MDS_READ_FIELD: opening global file: ../input/input/loc1_NH4_run83_janprof.bin
(PID.TID 0000.0001)  MDS_READ_FIELD: opening global file: ../input/input/loc1_FeT_run83_janprof.bin
(PID.TID 0000.0001)  MDS_READ_FIELD: opening global file: ../input/input/loc1_C_biomass_janprof.bin
(PID.TID 0000.0001)  MDS_READ_FIELD: opening global file: ../input/input/loc1_C_biomass_janprof.bin
(PID.TID 0000.0001)  MDS_READ_FIELD: opening global file: ../input/input/loc1_C_biomass_janprof.bin
(PID.TID 0000.0001)  MDS_READ_FIELD: opening global file: ../input/input/loc1_C_biomass_janprof.bin
(PID.TID 0000.0001)  MDS_READ_FIELD: opening global file: ../input/input/loc1_C_biomass_janprof.bin
(PID.TID 0000.0001)  MDS_READ_FIELD: opening global file: ../input/input/loc1_C_biomass_janprof.bin
(PID.TID 0000.0001)  MDS_READ_FIELD: opening global file: ../input/input/loc1_C_biomass_janprof.bin
(PID.TID 0000.0001)  MDS_READ_FIELD: opening global file: ../input/input/loc1_C_biomass_janprof.bin
(PID.TID 0000.0001)  MDS_READ_FIELD: opening global file: ../input/input/loc1_C_biomass_janprof.bin
(PID.TID 0000.0001)  MDS_READ_FIELD: opening global file: ../input/input/loc1_C_biomass_janprof.bin
(PID.TID 0000.0001)  MDS_READ_FIELD: opening global file: ../input/input/loc1_C_biomass_janprof.bin
(PID.TID 0000.0001)  MDS_READ_FIELD: opening global file: ../input/input/loc1_C_biomass_janprof.bin
(PID.TID 0000.0001)  MDS_READ_FIELD: opening global file: ../input/input/loc1_C_biomass_janprof.bin
(PID.TID 0000.0001)  MDS_READ_FIELD: opening global file: ../input/input/loc1_C_biomass_janprof.bin
(PID.TID 0000.0001)  MDS_READ_FIELD: opening global file: ../input/input/loc1_C_biomass_janprof.bin
(PID.TID 0000.0001)  MDS_READ_FIELD: opening global file: ../input/input/loc1_C_biomass_janprof.bin
(PID.TID 0000.0001)  MDS_READ_FIELD: opening global file: ../input/input/loc1_N_biomass_janprof.bin
(PID.TID 0000.0001)  MDS_READ_FIELD: opening global file: ../input/input/loc1_N_biomass_janprof.bin
(PID.TID 0000.0001)  MDS_READ_FIELD: opening global file: ../input/input/loc1_N_biomass_janprof.bin
(PID.TID 0000.0001)  MDS_READ_FIELD: opening global file: ../input/input/loc1_N_biomass_janprof.bin
(PID.TID 0000.0001)  MDS_READ_FIELD: opening global file: ../input/input/loc1_N_biomass_janprof.bin
(PID.TID 0000.0001)  MDS_READ_FIELD: opening global file: ../input/input/loc1_N_biomass_janprof.bin
(PID.TID 0000.0001)  MDS_READ_FIELD: opening global file: ../input/input/loc1_N_biomass_janprof.bin
(PID.TID 0000.0001)  MDS_READ_FIELD: opening global file: ../input/input/loc1_N_biomass_janprof.bin
(PID.TID 0000.0001)  MDS_READ_FIELD: opening global file: ../input/input/loc1_N_biomass_janprof.bin
(PID.TID 0000.0001)  MDS_READ_FIELD: opening global file: ../input/input/loc1_N_biomass_janprof.bin
(PID.TID 0000.0001)  MDS_READ_FIELD: opening global file: ../input/input/loc1_N_biomass_janprof.bin
(PID.TID 0000.0001)  MDS_READ_FIELD: opening global file: ../input/input/loc1_N_biomass_janprof.bin
(PID.TID 0000.0001)  MDS_READ_FIELD: opening global file: ../input/input/loc1_N_biomass_janprof.bin
(PID.TID 0000.0001)  MDS_READ_FIELD: opening global file: ../input/input/loc1_N_biomass_janprof.bin
(PID.TID 0000.0001)  MDS_READ_FIELD: opening global file: ../input/input/loc1_N_biomass_janprof.bin
(PID.TID 0000.0001)  MDS_READ_FIELD: opening global file: ../input/input/loc1_N_biomass_janprof.bin
(PID.TID 0000.0001)  MDS_READ_FIELD: opening global file: ../input/input/loc1_Fe_biomass_janprof.bin
(PID.TID 0000.0001)  MDS_READ_FIELD: opening global file: ../input/input/loc1_Fe_biomass_janprof.bin
(PID.TID 0000.0001)  MDS_READ_FIELD: opening global file: ../input/input/loc1_Fe_biomass_janprof.bin
(PID.TID 0000.0001)  MDS_READ_FIELD: opening global file: ../input/input/loc1_Fe_biomass_janprof.bin
(PID.TID 0000.0001)  MDS_READ_FIELD: opening global file: ../input/input/loc1_Fe_biomass_janprof.bin
(PID.TID 0000.0001)  MDS_READ_FIELD: opening global file: ../input/input/loc1_Fe_biomass_janprof.bin
(PID.TID 0000.0001)  MDS_READ_FIELD: opening global file: ../input/input/loc1_Fe_biomass_janprof.bin
(PID.TID 0000.0001)  MDS_READ_FIELD: opening global file: ../input/input/loc1_Fe_biomass_janprof.bin
(PID.TID 0000.0001)  MDS_READ_FIELD: opening global file: ../input/input/loc1_Fe_biomass_janprof.bin
(PID.TID 0000.0001)  MDS_READ_FIELD: opening global file: ../input/input/loc1_Fe_biomass_janprof.bin
(PID.TID 0000.0001)  MDS_READ_FIELD: opening global file: ../input/input/loc1_Fe_biomass_janprof.bin
(PID.TID 0000.0001)  MDS_READ_FIELD: opening global file: ../input/input/loc1_Fe_biomass_janprof.bin
(PID.TID 0000.0001)  MDS_READ_FIELD: opening global file: ../input/input/loc1_Fe_biomass_janprof.bin
(PID.TID 0000.0001)  MDS_READ_FIELD: opening global file: ../input/input/loc1_Fe_biomass_janprof.bin
(PID.TID 0000.0001)  MDS_READ_FIELD: opening global file: ../input/input/loc1_Fe_biomass_janprof.bin
(PID.TID 0000.0001)  MDS_READ_FIELD: opening global file: ../input/input/loc1_Fe_biomass_janprof.bin
(PID.TID 0000.0001)  MDS_READ_FIELD: opening global file: ../input/input/loc1_chlorophyll_janprof.bin
(PID.TID 0000.0001)  MDS_READ_FIELD: opening global file: ../input/input/loc1_chlorophyll_janprof.bin
(PID.TID 0000.0001)  MDS_READ_FIELD: opening global file: ../input/input/loc1_chlorophyll_janprof.bin
(PID.TID 0000.0001)  MDS_READ_FIELD: opening global file: ../input/input/loc1_chlorophyll_janprof.bin
(PID.TID 0000.0001)  MDS_READ_FIELD: opening global file: ../input/input/loc1_chlorophyll_janprof.bin
(PID.TID 0000.0001)  MDS_READ_FIELD: opening global file: ../input/input/loc1_chlorophyll_janprof.bin
(PID.TID 0000.0001)  MDS_READ_FIELD: opening global file: ../input/input/loc1_chlorophyll_janprof.bin
(PID.TID 0000.0001)  MDS_READ_FIELD: opening global file: ../input/input/loc1_chlorophyll_janprof.bin
(PID.TID 0000.0001)  MDS_READ_FIELD: opening global file: ../input/input/loc1_chlorophyll_janprof.bin
(PID.TID 0000.0001)  MDS_READ_FIELD: opening global file: ../input/input/loc1_chlorophyll_janprof.bin
(PID.TID 0000.0001)  MDS_READ_FIELD: opening global file: ../input/input/loc1_chlorophyll_janprof.bin
(PID.TID 0000.0001)  MDS_READ_FIELD: opening global file: ../input/input/loc1_chlorophyll_janprof.bin
(PID.TID 0000.0001)  MDS_READ_FIELD: opening global file: ../input/input/loc1_chlorophyll_janprof.bin
(PID.TID 0000.0001)  MDS_READ_FIELD: opening global file: ../input/input/loc1_chlorophyll_janprof.bin
(PID.TID 0000.0001)  MDS_READ_FIELD: opening global file: ../input/input/loc1_chlorophyll_janprof.bin
(PID.TID 0000.0001)  MDS_READ_FIELD: opening global file: ../input/input/loc1_chlorophyll_janprof.bin
(PID.TID 0000.0001)  MDS_READ_FIELD: opening global file: ../input/input/loc1_DOC_janprof.bin
(PID.TID 0000.0001)  MDS_READ_FIELD: opening global file: ../input/input/loc1_POC_janprof.bin
(PID.TID 0000.0001)  MDS_READ_FIELD: opening global file: ../input/input/loc1_DON_run83_janprof.bin
(PID.TID 0000.0001)  MDS_READ_FIELD: opening global file: ../input/input/loc1_PON_run83_janprof.bin
(PID.TID 0000.0001)  MDS_READ_FIELD: opening global file: ../input/input/loc1_DOFe_run83_janprof.bin
(PID.TID 0000.0001)  MDS_READ_FIELD: opening global file: ../input/input/loc1_POFe_run83_janprof.bin
(PID.TID 0000.0001) QQ random port_rand            11231   0.4077530000000000
(PID.TID 0000.0001) // =======================================================
(PID.TID 0000.0001) // Quota init variables >>> START <<<
(PID.TID 0000.0001) // =======================================================
(PID.TID 0000.0001) QQ start timeave
(PID.TID 0000.0001) // =======================================================
(PID.TID 0000.0001) // Darwin init variables >>> END <<<
(PID.TID 0000.0001) // =======================================================
(PID.TID 0000.0001) // =======================================================
(PID.TID 0000.0001) // Model current state
(PID.TID 0000.0001) // =======================================================
(PID.TID 0000.0001) 
(PID.TID 0000.0001) // =======================================================
(PID.TID 0000.0001) // Begin MONITOR dynamic field statistics
(PID.TID 0000.0001) // =======================================================
(PID.TID 0000.0001) %MON time_tsnumber                =                     0
(PID.TID 0000.0001) %MON time_secondsf                =   0.0000000000000E+00
(PID.TID 0000.0001) %MON dynstat_eta_max              =   0.0000000000000E+00
(PID.TID 0000.0001) %MON dynstat_eta_min              =   0.0000000000000E+00
(PID.TID 0000.0001) %MON dynstat_eta_mean             =   0.0000000000000E+00
(PID.TID 0000.0001) %MON dynstat_eta_sd               =   0.0000000000000E+00
(PID.TID 0000.0001) %MON dynstat_eta_del2             =   0.0000000000000E+00
(PID.TID 0000.0001) %MON dynstat_uvel_max             =   0.0000000000000E+00
(PID.TID 0000.0001) %MON dynstat_uvel_min             =   0.0000000000000E+00
(PID.TID 0000.0001) %MON dynstat_uvel_mean            =   0.0000000000000E+00
(PID.TID 0000.0001) %MON dynstat_uvel_sd              =   0.0000000000000E+00
(PID.TID 0000.0001) %MON dynstat_uvel_del2            =   0.0000000000000E+00
(PID.TID 0000.0001) %MON dynstat_vvel_max             =   0.0000000000000E+00
(PID.TID 0000.0001) %MON dynstat_vvel_min             =   0.0000000000000E+00
(PID.TID 0000.0001) %MON dynstat_vvel_mean            =   0.0000000000000E+00
(PID.TID 0000.0001) %MON dynstat_vvel_sd              =   0.0000000000000E+00
(PID.TID 0000.0001) %MON dynstat_vvel_del2            =   0.0000000000000E+00
(PID.TID 0000.0001) %MON dynstat_wvel_max             =   0.0000000000000E+00
(PID.TID 0000.0001) %MON dynstat_wvel_min             =   0.0000000000000E+00
(PID.TID 0000.0001) %MON dynstat_wvel_mean            =   0.0000000000000E+00
(PID.TID 0000.0001) %MON dynstat_wvel_sd              =   0.0000000000000E+00
(PID.TID 0000.0001) %MON dynstat_wvel_del2            =   0.0000000000000E+00
(PID.TID 0000.0001) %MON dynstat_theta_max            =   6.5096502304077E+00
(PID.TID 0000.0001) %MON dynstat_theta_min            =  -9.3889999389648E-01
(PID.TID 0000.0001) %MON dynstat_theta_mean           =   1.5603987870469E-01
(PID.TID 0000.0001) %MON dynstat_theta_sd             =   2.0853921626073E+00
(PID.TID 0000.0001) %MON dynstat_theta_del2           =   0.0000000000000E+00
(PID.TID 0000.0001) %MON dynstat_salt_max             =   3.5000000000000E+01
(PID.TID 0000.0001) %MON dynstat_salt_min             =   3.5000000000000E+01
(PID.TID 0000.0001) %MON dynstat_salt_mean            =   3.5000000000000E+01
(PID.TID 0000.0001) %MON dynstat_salt_sd              =   7.1054273576010E-15
(PID.TID 0000.0001) %MON dynstat_salt_del2            =   0.0000000000000E+00
(PID.TID 0000.0001) %MON dynstat_sst_max              =   6.5096502304077E+00
(PID.TID 0000.0001) %MON dynstat_sst_min              =   6.5096502304077E+00
(PID.TID 0000.0001) %MON dynstat_sst_mean             =   6.5096502304077E+00
(PID.TID 0000.0001) %MON dynstat_sst_sd               =   0.0000000000000E+00
(PID.TID 0000.0001) %MON dynstat_sst_del2             =   0.0000000000000E+00
(PID.TID 0000.0001) %MON dynstat_sss_max              =   3.5000000000000E+01
(PID.TID 0000.0001) %MON dynstat_sss_min              =   3.5000000000000E+01
(PID.TID 0000.0001) %MON dynstat_sss_mean             =   3.5000000000000E+01
(PID.TID 0000.0001) %MON dynstat_sss_sd               =   0.0000000000000E+00
(PID.TID 0000.0001) %MON dynstat_sss_del2             =   0.0000000000000E+00
(PID.TID 0000.0001) %MON forcing_qnet_max             =   0.0000000000000E+00
(PID.TID 0000.0001) %MON forcing_qnet_min             =   0.0000000000000E+00
(PID.TID 0000.0001) %MON forcing_qnet_mean            =   0.0000000000000E+00
(PID.TID 0000.0001) %MON forcing_qnet_sd              =   0.0000000000000E+00
(PID.TID 0000.0001) %MON forcing_qnet_del2            =   0.0000000000000E+00
(PID.TID 0000.0001) %MON forcing_qsw_max              =   0.0000000000000E+00
(PID.TID 0000.0001) %MON forcing_qsw_min              =   0.0000000000000E+00
(PID.TID 0000.0001) %MON forcing_qsw_mean             =   0.0000000000000E+00
(PID.TID 0000.0001) %MON forcing_qsw_sd               =   0.0000000000000E+00
(PID.TID 0000.0001) %MON forcing_qsw_del2             =   0.0000000000000E+00
(PID.TID 0000.0001) %MON forcing_empmr_max            =   0.0000000000000E+00
(PID.TID 0000.0001) %MON forcing_empmr_min            =   0.0000000000000E+00
(PID.TID 0000.0001) %MON forcing_empmr_mean           =   0.0000000000000E+00
(PID.TID 0000.0001) %MON forcing_empmr_sd             =   0.0000000000000E+00
(PID.TID 0000.0001) %MON forcing_empmr_del2           =   0.0000000000000E+00
(PID.TID 0000.0001) %MON forcing_fu_max               =   1.8626669645309E+00
(PID.TID 0000.0001) %MON forcing_fu_min               =   1.8626669645309E+00
(PID.TID 0000.0001) %MON forcing_fu_mean              =   1.8626669645309E+00
(PID.TID 0000.0001) %MON forcing_fu_sd                =   0.0000000000000E+00
(PID.TID 0000.0001) %MON forcing_fu_del2              =   0.0000000000000E+00
(PID.TID 0000.0001) %MON forcing_fv_max               =   1.5513329505920E+00
(PID.TID 0000.0001) %MON forcing_fv_min               =   1.5513329505920E+00
(PID.TID 0000.0001) %MON forcing_fv_mean              =   1.5513329505920E+00
(PID.TID 0000.0001) %MON forcing_fv_sd                =   0.0000000000000E+00
(PID.TID 0000.0001) %MON forcing_fv_del2              =   0.0000000000000E+00
(PID.TID 0000.0001) %MON advcfl_uvel_max              =   0.0000000000000E+00
(PID.TID 0000.0001) %MON advcfl_vvel_max              =   0.0000000000000E+00
(PID.TID 0000.0001) %MON advcfl_wvel_max              =   0.0000000000000E+00
(PID.TID 0000.0001) %MON advcfl_W_hf_max              =   0.0000000000000E+00
(PID.TID 0000.0001) %MON pe_b_mean                    =   0.0000000000000E+00
(PID.TID 0000.0001) %MON ke_max                       =   0.0000000000000E+00
(PID.TID 0000.0001) %MON ke_mean                      =   0.0000000000000E+00
(PID.TID 0000.0001) %MON ke_vol                       =   4.1199767883485E+13
(PID.TID 0000.0001) %MON vort_r_min                   =   0.0000000000000E+00
(PID.TID 0000.0001) %MON vort_r_max                   =   0.0000000000000E+00
(PID.TID 0000.0001) %MON vort_a_mean                  =  -4.5067801836625E-05
(PID.TID 0000.0001) %MON vort_a_sd                    =  -4.1359030627651E-25
(PID.TID 0000.0001) %MON vort_p_mean                  =  -4.5067801836625E-05
(PID.TID 0000.0001) %MON vort_p_sd                    =   0.0000000000000E+00
(PID.TID 0000.0001) %MON surfExpan_theta_mean         =   0.0000000000000E+00
(PID.TID 0000.0001) %MON surfExpan_salt_mean          =   0.0000000000000E+00
(PID.TID 0000.0001) // =======================================================
(PID.TID 0000.0001) // End MONITOR dynamic field statistics
(PID.TID 0000.0001) // =======================================================
(PID.TID 0000.0001) // =======================================================
(PID.TID 0000.0001) // Begin MONITOR ptracer field statistics
(PID.TID 0000.0001) // =======================================================
(PID.TID 0000.0001) %MON trcstat_ptracer01_max        =   2.1623999023438E+03
(PID.TID 0000.0001) %MON trcstat_ptracer01_min        =   2.0848964843750E+03
(PID.TID 0000.0001) %MON trcstat_ptracer01_mean       =   2.1557233177698E+03
(PID.TID 0000.0001) %MON trcstat_ptracer01_sd         =   1.1620928165015E+01
(PID.TID 0000.0001) %MON trcstat_ptracer01_del2       =   0.0000000000000E+00
(PID.TID 0000.0001) %MON trcstat_ptracer02_max        =   1.5341600418091E+01
(PID.TID 0000.0001) %MON trcstat_ptracer02_min        =   1.1842899322510E+01
(PID.TID 0000.0001) %MON trcstat_ptracer02_mean       =   1.4471561560133E+01
(PID.TID 0000.0001) %MON trcstat_ptracer02_sd         =   9.1988937719318E-01
(PID.TID 0000.0001) %MON trcstat_ptracer02_del2       =   0.0000000000000E+00
(PID.TID 0000.0001) %MON trcstat_ptracer03_max        =   3.7918146699667E-02
(PID.TID 0000.0001) %MON trcstat_ptracer03_min        =   0.0000000000000E+00
(PID.TID 0000.0001) %MON trcstat_ptracer03_mean       =   7.8145818443748E-03
(PID.TID 0000.0001) %MON trcstat_ptracer03_sd         =   1.0806319055981E-02
(PID.TID 0000.0001) %MON trcstat_ptracer03_del2       =   0.0000000000000E+00
(PID.TID 0000.0001) %MON trcstat_ptracer04_max        =   2.2952675353736E-03
(PID.TID 0000.0001) %MON trcstat_ptracer04_min        =   0.0000000000000E+00
(PID.TID 0000.0001) %MON trcstat_ptracer04_mean       =   3.3611169662653E-04
(PID.TID 0000.0001) %MON trcstat_ptracer04_sd         =   4.7743954057331E-04
(PID.TID 0000.0001) %MON trcstat_ptracer04_del2       =   0.0000000000000E+00
(PID.TID 0000.0001) %MON trcstat_ptracer05_max        =   9.1629312373698E-04
(PID.TID 0000.0001) %MON trcstat_ptracer05_min        =   0.0000000000000E+00
(PID.TID 0000.0001) %MON trcstat_ptracer05_mean       =   5.7980704863419E-04
(PID.TID 0000.0001) %MON trcstat_ptracer05_sd         =   3.7871275821035E-04
(PID.TID 0000.0001) %MON trcstat_ptracer05_del2       =   0.0000000000000E+00
(PID.TID 0000.0001) %MON trcstat_ptracer06_max        =   6.6250001040657E-09
(PID.TID 0000.0001) %MON trcstat_ptracer06_min        =   6.6250001040657E-09
(PID.TID 0000.0001) %MON trcstat_ptracer06_mean       =   6.6250001040658E-09
(PID.TID 0000.0001) %MON trcstat_ptracer06_sd         =   2.4815418376591E-24
(PID.TID 0000.0001) %MON trcstat_ptracer06_del2       =   0.0000000000000E+00
(PID.TID 0000.0001) %MON trcstat_ptracer07_max        =   6.6250001040657E-09
(PID.TID 0000.0001) %MON trcstat_ptracer07_min        =   6.6250001040657E-09
(PID.TID 0000.0001) %MON trcstat_ptracer07_mean       =   6.6250001040658E-09
(PID.TID 0000.0001) %MON trcstat_ptracer07_sd         =   2.4815418376591E-24
(PID.TID 0000.0001) %MON trcstat_ptracer07_del2       =   0.0000000000000E+00
(PID.TID 0000.0001) %MON trcstat_ptracer08_max        =   6.6250001040657E-09
(PID.TID 0000.0001) %MON trcstat_ptracer08_min        =   6.6250001040657E-09
(PID.TID 0000.0001) %MON trcstat_ptracer08_mean       =   6.6250001040658E-09
(PID.TID 0000.0001) %MON trcstat_ptracer08_sd         =   2.4815418376591E-24
(PID.TID 0000.0001) %MON trcstat_ptracer08_del2       =   0.0000000000000E+00
(PID.TID 0000.0001) %MON trcstat_ptracer09_max        =   6.6250001040657E-09
(PID.TID 0000.0001) %MON trcstat_ptracer09_min        =   6.6250001040657E-09
(PID.TID 0000.0001) %MON trcstat_ptracer09_mean       =   6.6250001040658E-09
(PID.TID 0000.0001) %MON trcstat_ptracer09_sd         =   2.4815418376591E-24
(PID.TID 0000.0001) %MON trcstat_ptracer09_del2       =   0.0000000000000E+00
(PID.TID 0000.0001) %MON trcstat_ptracer10_max        =   6.6250001040657E-09
(PID.TID 0000.0001) %MON trcstat_ptracer10_min        =   6.6250001040657E-09
(PID.TID 0000.0001) %MON trcstat_ptracer10_mean       =   6.6250001040658E-09
(PID.TID 0000.0001) %MON trcstat_ptracer10_sd         =   2.4815418376591E-24
(PID.TID 0000.0001) %MON trcstat_ptracer10_del2       =   0.0000000000000E+00
(PID.TID 0000.0001) %MON trcstat_ptracer11_max        =   6.6250001040657E-09
(PID.TID 0000.0001) %MON trcstat_ptracer11_min        =   6.6250001040657E-09
(PID.TID 0000.0001) %MON trcstat_ptracer11_mean       =   6.6250001040658E-09
(PID.TID 0000.0001) %MON trcstat_ptracer11_sd         =   2.4815418376591E-24
(PID.TID 0000.0001) %MON trcstat_ptracer11_del2       =   0.0000000000000E+00
(PID.TID 0000.0001) %MON trcstat_ptracer12_max        =   6.6250001040657E-09
(PID.TID 0000.0001) %MON trcstat_ptracer12_min        =   6.6250001040657E-09
(PID.TID 0000.0001) %MON trcstat_ptracer12_mean       =   6.6250001040658E-09
(PID.TID 0000.0001) %MON trcstat_ptracer12_sd         =   2.4815418376591E-24
(PID.TID 0000.0001) %MON trcstat_ptracer12_del2       =   0.0000000000000E+00
(PID.TID 0000.0001) %MON trcstat_ptracer13_max        =   6.6250001040657E-09
(PID.TID 0000.0001) %MON trcstat_ptracer13_min        =   6.6250001040657E-09
(PID.TID 0000.0001) %MON trcstat_ptracer13_mean       =   6.6250001040658E-09
(PID.TID 0000.0001) %MON trcstat_ptracer13_sd         =   2.4815418376591E-24
(PID.TID 0000.0001) %MON trcstat_ptracer13_del2       =   0.0000000000000E+00
(PID.TID 0000.0001) %MON trcstat_ptracer14_max        =   6.6250001040657E-09
(PID.TID 0000.0001) %MON trcstat_ptracer14_min        =   6.6250001040657E-09
(PID.TID 0000.0001) %MON trcstat_ptracer14_mean       =   6.6250001040658E-09
(PID.TID 0000.0001) %MON trcstat_ptracer14_sd         =   2.4815418376591E-24
(PID.TID 0000.0001) %MON trcstat_ptracer14_del2       =   0.0000000000000E+00
(PID.TID 0000.0001) %MON trcstat_ptracer15_max        =   6.6250001040657E-09
(PID.TID 0000.0001) %MON trcstat_ptracer15_min        =   6.6250001040657E-09
(PID.TID 0000.0001) %MON trcstat_ptracer15_mean       =   6.6250001040658E-09
(PID.TID 0000.0001) %MON trcstat_ptracer15_sd         =   2.4815418376591E-24
(PID.TID 0000.0001) %MON trcstat_ptracer15_del2       =   0.0000000000000E+00
(PID.TID 0000.0001) %MON trcstat_ptracer16_max        =   6.6250001040657E-09
(PID.TID 0000.0001) %MON trcstat_ptracer16_min        =   6.6250001040657E-09
(PID.TID 0000.0001) %MON trcstat_ptracer16_mean       =   6.6250001040658E-09
(PID.TID 0000.0001) %MON trcstat_ptracer16_sd         =   2.4815418376591E-24
(PID.TID 0000.0001) %MON trcstat_ptracer16_del2       =   0.0000000000000E+00
(PID.TID 0000.0001) %MON trcstat_ptracer17_max        =   6.6250001040657E-09
(PID.TID 0000.0001) %MON trcstat_ptracer17_min        =   6.6250001040657E-09
(PID.TID 0000.0001) %MON trcstat_ptracer17_mean       =   6.6250001040658E-09
(PID.TID 0000.0001) %MON trcstat_ptracer17_sd         =   2.4815418376591E-24
(PID.TID 0000.0001) %MON trcstat_ptracer17_del2       =   0.0000000000000E+00
(PID.TID 0000.0001) %MON trcstat_ptracer18_max        =   6.6250001040657E-09
(PID.TID 0000.0001) %MON trcstat_ptracer18_min        =   6.6250001040657E-09
(PID.TID 0000.0001) %MON trcstat_ptracer18_mean       =   6.6250001040658E-09
(PID.TID 0000.0001) %MON trcstat_ptracer18_sd         =   2.4815418376591E-24
(PID.TID 0000.0001) %MON trcstat_ptracer18_del2       =   0.0000000000000E+00
(PID.TID 0000.0001) %MON trcstat_ptracer19_max        =   6.6250001040657E-09
(PID.TID 0000.0001) %MON trcstat_ptracer19_min        =   6.6250001040657E-09
(PID.TID 0000.0001) %MON trcstat_ptracer19_mean       =   6.6250001040658E-09
(PID.TID 0000.0001) %MON trcstat_ptracer19_sd         =   2.4815418376591E-24
(PID.TID 0000.0001) %MON trcstat_ptracer19_del2       =   0.0000000000000E+00
(PID.TID 0000.0001) %MON trcstat_ptracer20_max        =   6.6250001040657E-09
(PID.TID 0000.0001) %MON trcstat_ptracer20_min        =   6.6250001040657E-09
(PID.TID 0000.0001) %MON trcstat_ptracer20_mean       =   6.6250001040658E-09
(PID.TID 0000.0001) %MON trcstat_ptracer20_sd         =   2.4815418376591E-24
(PID.TID 0000.0001) %MON trcstat_ptracer20_del2       =   0.0000000000000E+00
(PID.TID 0000.0001) %MON trcstat_ptracer21_max        =   6.6250001040657E-09
(PID.TID 0000.0001) %MON trcstat_ptracer21_min        =   6.6250001040657E-09
(PID.TID 0000.0001) %MON trcstat_ptracer21_mean       =   6.6250001040658E-09
(PID.TID 0000.0001) %MON trcstat_ptracer21_sd         =   2.4815418376591E-24
(PID.TID 0000.0001) %MON trcstat_ptracer21_del2       =   0.0000000000000E+00
(PID.TID 0000.0001) %MON trcstat_ptracer22_max        =   4.9999998585903E-10
(PID.TID 0000.0001) %MON trcstat_ptracer22_min        =   4.9999998585903E-10
(PID.TID 0000.0001) %MON trcstat_ptracer22_mean       =   4.9999998585903E-10
(PID.TID 0000.0001) %MON trcstat_ptracer22_sd         =   0.0000000000000E+00
(PID.TID 0000.0001) %MON trcstat_ptracer22_del2       =   0.0000000000000E+00
(PID.TID 0000.0001) %MON trcstat_ptracer23_max        =   4.9999998585903E-10
(PID.TID 0000.0001) %MON trcstat_ptracer23_min        =   4.9999998585903E-10
(PID.TID 0000.0001) %MON trcstat_ptracer23_mean       =   4.9999998585903E-10
(PID.TID 0000.0001) %MON trcstat_ptracer23_sd         =   0.0000000000000E+00
(PID.TID 0000.0001) %MON trcstat_ptracer23_del2       =   0.0000000000000E+00
(PID.TID 0000.0001) %MON trcstat_ptracer24_max        =   4.9999998585903E-10
(PID.TID 0000.0001) %MON trcstat_ptracer24_min        =   4.9999998585903E-10
(PID.TID 0000.0001) %MON trcstat_ptracer24_mean       =   4.9999998585903E-10
(PID.TID 0000.0001) %MON trcstat_ptracer24_sd         =   0.0000000000000E+00
(PID.TID 0000.0001) %MON trcstat_ptracer24_del2       =   0.0000000000000E+00
(PID.TID 0000.0001) %MON trcstat_ptracer25_max        =   4.9999998585903E-10
(PID.TID 0000.0001) %MON trcstat_ptracer25_min        =   4.9999998585903E-10
(PID.TID 0000.0001) %MON trcstat_ptracer25_mean       =   4.9999998585903E-10
(PID.TID 0000.0001) %MON trcstat_ptracer25_sd         =   0.0000000000000E+00
(PID.TID 0000.0001) %MON trcstat_ptracer25_del2       =   0.0000000000000E+00
(PID.TID 0000.0001) %MON trcstat_ptracer26_max        =   4.9999998585903E-10
(PID.TID 0000.0001) %MON trcstat_ptracer26_min        =   4.9999998585903E-10
(PID.TID 0000.0001) %MON trcstat_ptracer26_mean       =   4.9999998585903E-10
(PID.TID 0000.0001) %MON trcstat_ptracer26_sd         =   0.0000000000000E+00
(PID.TID 0000.0001) %MON trcstat_ptracer26_del2       =   0.0000000000000E+00
(PID.TID 0000.0001) %MON trcstat_ptracer27_max        =   4.9999998585903E-10
(PID.TID 0000.0001) %MON trcstat_ptracer27_min        =   4.9999998585903E-10
(PID.TID 0000.0001) %MON trcstat_ptracer27_mean       =   4.9999998585903E-10
(PID.TID 0000.0001) %MON trcstat_ptracer27_sd         =   0.0000000000000E+00
(PID.TID 0000.0001) %MON trcstat_ptracer27_del2       =   0.0000000000000E+00
(PID.TID 0000.0001) %MON trcstat_ptracer28_max        =   4.9999998585903E-10
(PID.TID 0000.0001) %MON trcstat_ptracer28_min        =   4.9999998585903E-10
(PID.TID 0000.0001) %MON trcstat_ptracer28_mean       =   4.9999998585903E-10
(PID.TID 0000.0001) %MON trcstat_ptracer28_sd         =   0.0000000000000E+00
(PID.TID 0000.0001) %MON trcstat_ptracer28_del2       =   0.0000000000000E+00
(PID.TID 0000.0001) %MON trcstat_ptracer29_max        =   4.9999998585903E-10
(PID.TID 0000.0001) %MON trcstat_ptracer29_min        =   4.9999998585903E-10
(PID.TID 0000.0001) %MON trcstat_ptracer29_mean       =   4.9999998585903E-10
(PID.TID 0000.0001) %MON trcstat_ptracer29_sd         =   0.0000000000000E+00
(PID.TID 0000.0001) %MON trcstat_ptracer29_del2       =   0.0000000000000E+00
(PID.TID 0000.0001) %MON trcstat_ptracer30_max        =   4.9999998585903E-10
(PID.TID 0000.0001) %MON trcstat_ptracer30_min        =   4.9999998585903E-10
(PID.TID 0000.0001) %MON trcstat_ptracer30_mean       =   4.9999998585903E-10
(PID.TID 0000.0001) %MON trcstat_ptracer30_sd         =   0.0000000000000E+00
(PID.TID 0000.0001) %MON trcstat_ptracer30_del2       =   0.0000000000000E+00
(PID.TID 0000.0001) %MON trcstat_ptracer31_max        =   4.9999998585903E-10
(PID.TID 0000.0001) %MON trcstat_ptracer31_min        =   4.9999998585903E-10
(PID.TID 0000.0001) %MON trcstat_ptracer31_mean       =   4.9999998585903E-10
(PID.TID 0000.0001) %MON trcstat_ptracer31_sd         =   0.0000000000000E+00
(PID.TID 0000.0001) %MON trcstat_ptracer31_del2       =   0.0000000000000E+00
(PID.TID 0000.0001) %MON trcstat_ptracer32_max        =   4.9999998585903E-10
(PID.TID 0000.0001) %MON trcstat_ptracer32_min        =   4.9999998585903E-10
(PID.TID 0000.0001) %MON trcstat_ptracer32_mean       =   4.9999998585903E-10
(PID.TID 0000.0001) %MON trcstat_ptracer32_sd         =   0.0000000000000E+00
(PID.TID 0000.0001) %MON trcstat_ptracer32_del2       =   0.0000000000000E+00
(PID.TID 0000.0001) %MON trcstat_ptracer33_max        =   4.9999998585903E-10
(PID.TID 0000.0001) %MON trcstat_ptracer33_min        =   4.9999998585903E-10
(PID.TID 0000.0001) %MON trcstat_ptracer33_mean       =   4.9999998585903E-10
(PID.TID 0000.0001) %MON trcstat_ptracer33_sd         =   0.0000000000000E+00
(PID.TID 0000.0001) %MON trcstat_ptracer33_del2       =   0.0000000000000E+00
(PID.TID 0000.0001) %MON trcstat_ptracer34_max        =   4.9999998585903E-10
(PID.TID 0000.0001) %MON trcstat_ptracer34_min        =   4.9999998585903E-10
(PID.TID 0000.0001) %MON trcstat_ptracer34_mean       =   4.9999998585903E-10
(PID.TID 0000.0001) %MON trcstat_ptracer34_sd         =   0.0000000000000E+00
(PID.TID 0000.0001) %MON trcstat_ptracer34_del2       =   0.0000000000000E+00
(PID.TID 0000.0001) %MON trcstat_ptracer35_max        =   4.9999998585903E-10
(PID.TID 0000.0001) %MON trcstat_ptracer35_min        =   4.9999998585903E-10
(PID.TID 0000.0001) %MON trcstat_ptracer35_mean       =   4.9999998585903E-10
(PID.TID 0000.0001) %MON trcstat_ptracer35_sd         =   0.0000000000000E+00
(PID.TID 0000.0001) %MON trcstat_ptracer35_del2       =   0.0000000000000E+00
(PID.TID 0000.0001) %MON trcstat_ptracer36_max        =   4.9999998585903E-10
(PID.TID 0000.0001) %MON trcstat_ptracer36_min        =   4.9999998585903E-10
(PID.TID 0000.0001) %MON trcstat_ptracer36_mean       =   4.9999998585903E-10
(PID.TID 0000.0001) %MON trcstat_ptracer36_sd         =   0.0000000000000E+00
(PID.TID 0000.0001) %MON trcstat_ptracer36_del2       =   0.0000000000000E+00
(PID.TID 0000.0001) %MON trcstat_ptracer37_max        =   4.9999998585903E-10
(PID.TID 0000.0001) %MON trcstat_ptracer37_min        =   4.9999998585903E-10
(PID.TID 0000.0001) %MON trcstat_ptracer37_mean       =   4.9999998585903E-10
(PID.TID 0000.0001) %MON trcstat_ptracer37_sd         =   0.0000000000000E+00
(PID.TID 0000.0001) %MON trcstat_ptracer37_del2       =   0.0000000000000E+00
(PID.TID 0000.0001) %MON trcstat_ptracer38_max        =   2.9999999473550E-14
(PID.TID 0000.0001) %MON trcstat_ptracer38_min        =   2.9999999473550E-14
(PID.TID 0000.0001) %MON trcstat_ptracer38_mean       =   2.9999999473550E-14
(PID.TID 0000.0001) %MON trcstat_ptracer38_sd         =   6.3108872417681E-30
(PID.TID 0000.0001) %MON trcstat_ptracer38_del2       =   0.0000000000000E+00
(PID.TID 0000.0001) %MON trcstat_ptracer39_max        =   2.9999999473550E-14
(PID.TID 0000.0001) %MON trcstat_ptracer39_min        =   2.9999999473550E-14
(PID.TID 0000.0001) %MON trcstat_ptracer39_mean       =   2.9999999473550E-14
(PID.TID 0000.0001) %MON trcstat_ptracer39_sd         =   6.3108872417681E-30
(PID.TID 0000.0001) %MON trcstat_ptracer39_del2       =   0.0000000000000E+00
(PID.TID 0000.0001) %MON trcstat_ptracer40_max        =   2.9999999473550E-14
(PID.TID 0000.0001) %MON trcstat_ptracer40_min        =   2.9999999473550E-14
(PID.TID 0000.0001) %MON trcstat_ptracer40_mean       =   2.9999999473550E-14
(PID.TID 0000.0001) %MON trcstat_ptracer40_sd         =   6.3108872417681E-30
(PID.TID 0000.0001) %MON trcstat_ptracer40_del2       =   0.0000000000000E+00
(PID.TID 0000.0001) %MON trcstat_ptracer41_max        =   2.9999999473550E-14
(PID.TID 0000.0001) %MON trcstat_ptracer41_min        =   2.9999999473550E-14
(PID.TID 0000.0001) %MON trcstat_ptracer41_mean       =   2.9999999473550E-14
(PID.TID 0000.0001) %MON trcstat_ptracer41_sd         =   6.3108872417681E-30
(PID.TID 0000.0001) %MON trcstat_ptracer41_del2       =   0.0000000000000E+00
(PID.TID 0000.0001) %MON trcstat_ptracer42_max        =   2.9999999473550E-14
(PID.TID 0000.0001) %MON trcstat_ptracer42_min        =   2.9999999473550E-14
(PID.TID 0000.0001) %MON trcstat_ptracer42_mean       =   2.9999999473550E-14
(PID.TID 0000.0001) %MON trcstat_ptracer42_sd         =   6.3108872417681E-30
(PID.TID 0000.0001) %MON trcstat_ptracer42_del2       =   0.0000000000000E+00
(PID.TID 0000.0001) %MON trcstat_ptracer43_max        =   2.9999999473550E-14
(PID.TID 0000.0001) %MON trcstat_ptracer43_min        =   2.9999999473550E-14
(PID.TID 0000.0001) %MON trcstat_ptracer43_mean       =   2.9999999473550E-14
(PID.TID 0000.0001) %MON trcstat_ptracer43_sd         =   6.3108872417681E-30
(PID.TID 0000.0001) %MON trcstat_ptracer43_del2       =   0.0000000000000E+00
(PID.TID 0000.0001) %MON trcstat_ptracer44_max        =   2.9999999473550E-14
(PID.TID 0000.0001) %MON trcstat_ptracer44_min        =   2.9999999473550E-14
(PID.TID 0000.0001) %MON trcstat_ptracer44_mean       =   2.9999999473550E-14
(PID.TID 0000.0001) %MON trcstat_ptracer44_sd         =   6.3108872417681E-30
(PID.TID 0000.0001) %MON trcstat_ptracer44_del2       =   0.0000000000000E+00
(PID.TID 0000.0001) %MON trcstat_ptracer45_max        =   2.9999999473550E-14
(PID.TID 0000.0001) %MON trcstat_ptracer45_min        =   2.9999999473550E-14
(PID.TID 0000.0001) %MON trcstat_ptracer45_mean       =   2.9999999473550E-14
(PID.TID 0000.0001) %MON trcstat_ptracer45_sd         =   6.3108872417681E-30
(PID.TID 0000.0001) %MON trcstat_ptracer45_del2       =   0.0000000000000E+00
(PID.TID 0000.0001) %MON trcstat_ptracer46_max        =   2.9999999473550E-14
(PID.TID 0000.0001) %MON trcstat_ptracer46_min        =   2.9999999473550E-14
(PID.TID 0000.0001) %MON trcstat_ptracer46_mean       =   2.9999999473550E-14
(PID.TID 0000.0001) %MON trcstat_ptracer46_sd         =   6.3108872417681E-30
(PID.TID 0000.0001) %MON trcstat_ptracer46_del2       =   0.0000000000000E+00
(PID.TID 0000.0001) %MON trcstat_ptracer47_max        =   2.9999999473550E-14
(PID.TID 0000.0001) %MON trcstat_ptracer47_min        =   2.9999999473550E-14
(PID.TID 0000.0001) %MON trcstat_ptracer47_mean       =   2.9999999473550E-14
(PID.TID 0000.0001) %MON trcstat_ptracer47_sd         =   6.3108872417681E-30
(PID.TID 0000.0001) %MON trcstat_ptracer47_del2       =   0.0000000000000E+00
(PID.TID 0000.0001) %MON trcstat_ptracer48_max        =   2.9999999473550E-14
(PID.TID 0000.0001) %MON trcstat_ptracer48_min        =   2.9999999473550E-14
(PID.TID 0000.0001) %MON trcstat_ptracer48_mean       =   2.9999999473550E-14
(PID.TID 0000.0001) %MON trcstat_ptracer48_sd         =   6.3108872417681E-30
(PID.TID 0000.0001) %MON trcstat_ptracer48_del2       =   0.0000000000000E+00
(PID.TID 0000.0001) %MON trcstat_ptracer49_max        =   2.9999999473550E-14
(PID.TID 0000.0001) %MON trcstat_ptracer49_min        =   2.9999999473550E-14
(PID.TID 0000.0001) %MON trcstat_ptracer49_mean       =   2.9999999473550E-14
(PID.TID 0000.0001) %MON trcstat_ptracer49_sd         =   6.3108872417681E-30
(PID.TID 0000.0001) %MON trcstat_ptracer49_del2       =   0.0000000000000E+00
(PID.TID 0000.0001) %MON trcstat_ptracer50_max        =   2.9999999473550E-14
(PID.TID 0000.0001) %MON trcstat_ptracer50_min        =   2.9999999473550E-14
(PID.TID 0000.0001) %MON trcstat_ptracer50_mean       =   2.9999999473550E-14
(PID.TID 0000.0001) %MON trcstat_ptracer50_sd         =   6.3108872417681E-30
(PID.TID 0000.0001) %MON trcstat_ptracer50_del2       =   0.0000000000000E+00
(PID.TID 0000.0001) %MON trcstat_ptracer51_max        =   2.9999999473550E-14
(PID.TID 0000.0001) %MON trcstat_ptracer51_min        =   2.9999999473550E-14
(PID.TID 0000.0001) %MON trcstat_ptracer51_mean       =   2.9999999473550E-14
(PID.TID 0000.0001) %MON trcstat_ptracer51_sd         =   6.3108872417681E-30
(PID.TID 0000.0001) %MON trcstat_ptracer51_del2       =   0.0000000000000E+00
(PID.TID 0000.0001) %MON trcstat_ptracer52_max        =   2.9999999473550E-14
(PID.TID 0000.0001) %MON trcstat_ptracer52_min        =   2.9999999473550E-14
(PID.TID 0000.0001) %MON trcstat_ptracer52_mean       =   2.9999999473550E-14
(PID.TID 0000.0001) %MON trcstat_ptracer52_sd         =   6.3108872417681E-30
(PID.TID 0000.0001) %MON trcstat_ptracer52_del2       =   0.0000000000000E+00
(PID.TID 0000.0001) %MON trcstat_ptracer53_max        =   2.9999999473550E-14
(PID.TID 0000.0001) %MON trcstat_ptracer53_min        =   2.9999999473550E-14
(PID.TID 0000.0001) %MON trcstat_ptracer53_mean       =   2.9999999473550E-14
(PID.TID 0000.0001) %MON trcstat_ptracer53_sd         =   6.3108872417681E-30
(PID.TID 0000.0001) %MON trcstat_ptracer53_del2       =   0.0000000000000E+00
(PID.TID 0000.0001) %MON trcstat_ptracer54_max        =   9.9999997171807E-10
(PID.TID 0000.0001) %MON trcstat_ptracer54_min        =   9.9999997171807E-10
(PID.TID 0000.0001) %MON trcstat_ptracer54_mean       =   9.9999997171807E-10
(PID.TID 0000.0001) %MON trcstat_ptracer54_sd         =   0.0000000000000E+00
(PID.TID 0000.0001) %MON trcstat_ptracer54_del2       =   0.0000000000000E+00
(PID.TID 0000.0001) %MON trcstat_ptracer55_max        =   9.9999997171807E-10
(PID.TID 0000.0001) %MON trcstat_ptracer55_min        =   9.9999997171807E-10
(PID.TID 0000.0001) %MON trcstat_ptracer55_mean       =   9.9999997171807E-10
(PID.TID 0000.0001) %MON trcstat_ptracer55_sd         =   0.0000000000000E+00
(PID.TID 0000.0001) %MON trcstat_ptracer55_del2       =   0.0000000000000E+00
(PID.TID 0000.0001) %MON trcstat_ptracer56_max        =   9.9999997171807E-10
(PID.TID 0000.0001) %MON trcstat_ptracer56_min        =   9.9999997171807E-10
(PID.TID 0000.0001) %MON trcstat_ptracer56_mean       =   9.9999997171807E-10
(PID.TID 0000.0001) %MON trcstat_ptracer56_sd         =   0.0000000000000E+00
(PID.TID 0000.0001) %MON trcstat_ptracer56_del2       =   0.0000000000000E+00
(PID.TID 0000.0001) %MON trcstat_ptracer57_max        =   9.9999997171807E-10
(PID.TID 0000.0001) %MON trcstat_ptracer57_min        =   9.9999997171807E-10
(PID.TID 0000.0001) %MON trcstat_ptracer57_mean       =   9.9999997171807E-10
(PID.TID 0000.0001) %MON trcstat_ptracer57_sd         =   0.0000000000000E+00
(PID.TID 0000.0001) %MON trcstat_ptracer57_del2       =   0.0000000000000E+00
(PID.TID 0000.0001) %MON trcstat_ptracer58_max        =   9.9999997171807E-10
(PID.TID 0000.0001) %MON trcstat_ptracer58_min        =   9.9999997171807E-10
(PID.TID 0000.0001) %MON trcstat_ptracer58_mean       =   9.9999997171807E-10
(PID.TID 0000.0001) %MON trcstat_ptracer58_sd         =   0.0000000000000E+00
(PID.TID 0000.0001) %MON trcstat_ptracer58_del2       =   0.0000000000000E+00
(PID.TID 0000.0001) %MON trcstat_ptracer59_max        =   9.9999997171807E-10
(PID.TID 0000.0001) %MON trcstat_ptracer59_min        =   9.9999997171807E-10
(PID.TID 0000.0001) %MON trcstat_ptracer59_mean       =   9.9999997171807E-10
(PID.TID 0000.0001) %MON trcstat_ptracer59_sd         =   0.0000000000000E+00
(PID.TID 0000.0001) %MON trcstat_ptracer59_del2       =   0.0000000000000E+00
(PID.TID 0000.0001) %MON trcstat_ptracer60_max        =   9.9999997171807E-10
(PID.TID 0000.0001) %MON trcstat_ptracer60_min        =   9.9999997171807E-10
(PID.TID 0000.0001) %MON trcstat_ptracer60_mean       =   9.9999997171807E-10
(PID.TID 0000.0001) %MON trcstat_ptracer60_sd         =   0.0000000000000E+00
(PID.TID 0000.0001) %MON trcstat_ptracer60_del2       =   0.0000000000000E+00
(PID.TID 0000.0001) %MON trcstat_ptracer61_max        =   9.9999997171807E-10
(PID.TID 0000.0001) %MON trcstat_ptracer61_min        =   9.9999997171807E-10
(PID.TID 0000.0001) %MON trcstat_ptracer61_mean       =   9.9999997171807E-10
(PID.TID 0000.0001) %MON trcstat_ptracer61_sd         =   0.0000000000000E+00
(PID.TID 0000.0001) %MON trcstat_ptracer61_del2       =   0.0000000000000E+00
(PID.TID 0000.0001) %MON trcstat_ptracer62_max        =   9.9999997171807E-10
(PID.TID 0000.0001) %MON trcstat_ptracer62_min        =   9.9999997171807E-10
(PID.TID 0000.0001) %MON trcstat_ptracer62_mean       =   9.9999997171807E-10
(PID.TID 0000.0001) %MON trcstat_ptracer62_sd         =   0.0000000000000E+00
(PID.TID 0000.0001) %MON trcstat_ptracer62_del2       =   0.0000000000000E+00
(PID.TID 0000.0001) %MON trcstat_ptracer63_max        =   9.9999997171807E-10
(PID.TID 0000.0001) %MON trcstat_ptracer63_min        =   9.9999997171807E-10
(PID.TID 0000.0001) %MON trcstat_ptracer63_mean       =   9.9999997171807E-10
(PID.TID 0000.0001) %MON trcstat_ptracer63_sd         =   0.0000000000000E+00
(PID.TID 0000.0001) %MON trcstat_ptracer63_del2       =   0.0000000000000E+00
(PID.TID 0000.0001) %MON trcstat_ptracer64_max        =   9.9999997171807E-10
(PID.TID 0000.0001) %MON trcstat_ptracer64_min        =   9.9999997171807E-10
(PID.TID 0000.0001) %MON trcstat_ptracer64_mean       =   9.9999997171807E-10
(PID.TID 0000.0001) %MON trcstat_ptracer64_sd         =   0.0000000000000E+00
(PID.TID 0000.0001) %MON trcstat_ptracer64_del2       =   0.0000000000000E+00
(PID.TID 0000.0001) %MON trcstat_ptracer65_max        =   9.9999997171807E-10
(PID.TID 0000.0001) %MON trcstat_ptracer65_min        =   9.9999997171807E-10
(PID.TID 0000.0001) %MON trcstat_ptracer65_mean       =   9.9999997171807E-10
(PID.TID 0000.0001) %MON trcstat_ptracer65_sd         =   0.0000000000000E+00
(PID.TID 0000.0001) %MON trcstat_ptracer65_del2       =   0.0000000000000E+00
(PID.TID 0000.0001) %MON trcstat_ptracer66_max        =   9.9999997171807E-10
(PID.TID 0000.0001) %MON trcstat_ptracer66_min        =   9.9999997171807E-10
(PID.TID 0000.0001) %MON trcstat_ptracer66_mean       =   9.9999997171807E-10
(PID.TID 0000.0001) %MON trcstat_ptracer66_sd         =   0.0000000000000E+00
(PID.TID 0000.0001) %MON trcstat_ptracer66_del2       =   0.0000000000000E+00
(PID.TID 0000.0001) %MON trcstat_ptracer67_max        =   9.9999997171807E-10
(PID.TID 0000.0001) %MON trcstat_ptracer67_min        =   9.9999997171807E-10
(PID.TID 0000.0001) %MON trcstat_ptracer67_mean       =   9.9999997171807E-10
(PID.TID 0000.0001) %MON trcstat_ptracer67_sd         =   0.0000000000000E+00
(PID.TID 0000.0001) %MON trcstat_ptracer67_del2       =   0.0000000000000E+00
(PID.TID 0000.0001) %MON trcstat_ptracer68_max        =   9.9999997171807E-10
(PID.TID 0000.0001) %MON trcstat_ptracer68_min        =   9.9999997171807E-10
(PID.TID 0000.0001) %MON trcstat_ptracer68_mean       =   9.9999997171807E-10
(PID.TID 0000.0001) %MON trcstat_ptracer68_sd         =   0.0000000000000E+00
(PID.TID 0000.0001) %MON trcstat_ptracer68_del2       =   0.0000000000000E+00
(PID.TID 0000.0001) %MON trcstat_ptracer69_max        =   9.9999997171807E-10
(PID.TID 0000.0001) %MON trcstat_ptracer69_min        =   9.9999997171807E-10
(PID.TID 0000.0001) %MON trcstat_ptracer69_mean       =   9.9999997171807E-10
(PID.TID 0000.0001) %MON trcstat_ptracer69_sd         =   0.0000000000000E+00
(PID.TID 0000.0001) %MON trcstat_ptracer69_del2       =   0.0000000000000E+00
(PID.TID 0000.0001) %MON trcstat_ptracer70_max        =   0.0000000000000E+00
(PID.TID 0000.0001) %MON trcstat_ptracer70_min        =   0.0000000000000E+00
(PID.TID 0000.0001) %MON trcstat_ptracer70_mean       =   0.0000000000000E+00
(PID.TID 0000.0001) %MON trcstat_ptracer70_sd         =   0.0000000000000E+00
(PID.TID 0000.0001) %MON trcstat_ptracer70_del2       =   0.0000000000000E+00
(PID.TID 0000.0001) %MON trcstat_ptracer71_max        =   0.0000000000000E+00
(PID.TID 0000.0001) %MON trcstat_ptracer71_min        =   0.0000000000000E+00
(PID.TID 0000.0001) %MON trcstat_ptracer71_mean       =   0.0000000000000E+00
(PID.TID 0000.0001) %MON trcstat_ptracer71_sd         =   0.0000000000000E+00
(PID.TID 0000.0001) %MON trcstat_ptracer71_del2       =   0.0000000000000E+00
(PID.TID 0000.0001) %MON trcstat_ptracer72_max        =   2.7267783880234E-01
(PID.TID 0000.0001) %MON trcstat_ptracer72_min        =   0.0000000000000E+00
(PID.TID 0000.0001) %MON trcstat_ptracer72_mean       =   3.3067342309609E-02
(PID.TID 0000.0001) %MON trcstat_ptracer72_sd         =   8.3679774951305E-02
(PID.TID 0000.0001) %MON trcstat_ptracer72_del2       =   0.0000000000000E+00
(PID.TID 0000.0001) %MON trcstat_ptracer73_max        =   3.0367041006684E-02
(PID.TID 0000.0001) %MON trcstat_ptracer73_min        =   0.0000000000000E+00
(PID.TID 0000.0001) %MON trcstat_ptracer73_mean       =   1.4939297063913E-02
(PID.TID 0000.0001) %MON trcstat_ptracer73_sd         =   1.1118076667108E-02
(PID.TID 0000.0001) %MON trcstat_ptracer73_del2       =   0.0000000000000E+00
(PID.TID 0000.0001) %MON trcstat_ptracer74_max        =   1.7042364561348E-05
(PID.TID 0000.0001) %MON trcstat_ptracer74_min        =   0.0000000000000E+00
(PID.TID 0000.0001) %MON trcstat_ptracer74_mean       =   2.0667088931327E-06
(PID.TID 0000.0001) %MON trcstat_ptracer74_sd         =   5.2299859300251E-06
(PID.TID 0000.0001) %MON trcstat_ptracer74_del2       =   0.0000000000000E+00
(PID.TID 0000.0001) %MON trcstat_ptracer75_max        =   1.8979401374963E-06
(PID.TID 0000.0001) %MON trcstat_ptracer75_min        =   0.0000000000000E+00
(PID.TID 0000.0001) %MON trcstat_ptracer75_mean       =   9.3370607446663E-07
(PID.TID 0000.0001) %MON trcstat_ptracer75_sd         =   6.9487981699102E-07
(PID.TID 0000.0001) %MON trcstat_ptracer75_del2       =   0.0000000000000E+00
(PID.TID 0000.0001) // =======================================================
(PID.TID 0000.0001) // End MONITOR ptracers field statistics
(PID.TID 0000.0001) // =======================================================
 EXTERNAL_FIELDS_LOAD, it=         0 : Reading new data, i0,i1=   12    1 (prev=   12    0 )
(PID.TID 0000.0001)  MDS_READ_FIELD: opening global file: ../input/input/wind_u_mon.bin
(PID.TID 0000.0001)  MDS_READ_FIELD: opening global file: ../input/input/wind_u_mon.bin
(PID.TID 0000.0001)  MDS_READ_FIELD: opening global file: ../input/input/wind_v_mon.bin
(PID.TID 0000.0001)  MDS_READ_FIELD: opening global file: ../input/input/wind_v_mon.bin
(PID.TID 0000.0001)  MDS_READ_FIELD: opening global file: ../input/input/loc1_temp_monsurf.bin
(PID.TID 0000.0001)  MDS_READ_FIELD: opening global file: ../input/input/loc1_temp_monsurf.bin
(PID.TID 0000.0001) S/R DARWIN_FIELDS_LOAD: Reading forcing data  0.000000000000E+00          0
(PID.TID 0000.0001)  MDS_READ_FIELD: opening global file: ../input/input/loc1_FeFlux_monsurf.bin
(PID.TID 0000.0001)  MDS_READ_FIELD: opening global file: ../input/input/loc1_FeFlux_monsurf.bin
(PID.TID 0000.0001)  MDS_READ_FIELD: opening global file: ../input/input/loc1_PAR_monsurf.bin
(PID.TID 0000.0001)  MDS_READ_FIELD: opening global file: ../input/input/loc1_PAR_monsurf.bin
(PID.TID 0000.0001) // =======================================================
(PID.TID 0000.0001) // Begin MONITOR dynamic field statistics
(PID.TID 0000.0001) // =======================================================
(PID.TID 0000.0001) %MON time_tsnumber                =                     1
(PID.TID 0000.0001) %MON time_secondsf                =   1.0800000000000E+04
(PID.TID 0000.0001) %MON dynstat_eta_max              =   0.0000000000000E+00
(PID.TID 0000.0001) %MON dynstat_eta_min              =   0.0000000000000E+00
(PID.TID 0000.0001) %MON dynstat_eta_mean             =   0.0000000000000E+00
(PID.TID 0000.0001) %MON dynstat_eta_sd               =   0.0000000000000E+00
(PID.TID 0000.0001) %MON dynstat_eta_del2             =   0.0000000000000E+00
(PID.TID 0000.0001) %MON dynstat_uvel_max             =   0.0000000000000E+00
(PID.TID 0000.0001) %MON dynstat_uvel_min             =   0.0000000000000E+00
(PID.TID 0000.0001) %MON dynstat_uvel_mean            =   0.0000000000000E+00
(PID.TID 0000.0001) %MON dynstat_uvel_sd              =   0.0000000000000E+00
(PID.TID 0000.0001) %MON dynstat_uvel_del2            =   0.0000000000000E+00
(PID.TID 0000.0001) %MON dynstat_vvel_max             =   0.0000000000000E+00
(PID.TID 0000.0001) %MON dynstat_vvel_min             =   0.0000000000000E+00
(PID.TID 0000.0001) %MON dynstat_vvel_mean            =   0.0000000000000E+00
(PID.TID 0000.0001) %MON dynstat_vvel_sd              =   0.0000000000000E+00
(PID.TID 0000.0001) %MON dynstat_vvel_del2            =   0.0000000000000E+00
(PID.TID 0000.0001) %MON dynstat_wvel_max             =   0.0000000000000E+00
(PID.TID 0000.0001) %MON dynstat_wvel_min             =   0.0000000000000E+00
(PID.TID 0000.0001) %MON dynstat_wvel_mean            =   0.0000000000000E+00
(PID.TID 0000.0001) %MON dynstat_wvel_sd              =   0.0000000000000E+00
(PID.TID 0000.0001) %MON dynstat_wvel_del2            =   0.0000000000000E+00
(PID.TID 0000.0001) %MON dynstat_theta_max            =   6.5044922881521E+00
(PID.TID 0000.0001) %MON dynstat_theta_min            =  -9.3889137359886E-01
(PID.TID 0000.0001) %MON dynstat_theta_mean           =   1.5606152272304E-01
(PID.TID 0000.0001) %MON dynstat_theta_sd             =   2.0854479480469E+00
(PID.TID 0000.0001) %MON dynstat_theta_del2           =   0.0000000000000E+00
(PID.TID 0000.0001) %MON dynstat_salt_max             =   3.5000000000000E+01
(PID.TID 0000.0001) %MON dynstat_salt_min             =   3.5000000000000E+01
(PID.TID 0000.0001) %MON dynstat_salt_mean            =   3.5000000000000E+01
(PID.TID 0000.0001) %MON dynstat_salt_sd              =   7.1054273576010E-15
(PID.TID 0000.0001) %MON dynstat_salt_del2            =   0.0000000000000E+00
(PID.TID 0000.0001) %MON dynstat_sst_max              =   6.5044922881521E+00
(PID.TID 0000.0001) %MON dynstat_sst_min              =   6.5044922881521E+00
(PID.TID 0000.0001) %MON dynstat_sst_mean             =   6.5044922881521E+00
(PID.TID 0000.0001) %MON dynstat_sst_sd               =   8.8817841970013E-16
(PID.TID 0000.0001) %MON dynstat_sst_del2             =   0.0000000000000E+00
(PID.TID 0000.0001) %MON dynstat_sss_max              =   3.5000000000000E+01
(PID.TID 0000.0001) %MON dynstat_sss_min              =   3.5000000000000E+01
(PID.TID 0000.0001) %MON dynstat_sss_mean             =   3.5000000000000E+01
(PID.TID 0000.0001) %MON dynstat_sss_sd               =   0.0000000000000E+00
(PID.TID 0000.0001) %MON dynstat_sss_del2             =   0.0000000000000E+00
(PID.TID 0000.0001) %MON forcing_qnet_max             =   0.0000000000000E+00
(PID.TID 0000.0001) %MON forcing_qnet_min             =   0.0000000000000E+00
(PID.TID 0000.0001) %MON forcing_qnet_mean            =   0.0000000000000E+00
(PID.TID 0000.0001) %MON forcing_qnet_sd              =   0.0000000000000E+00
(PID.TID 0000.0001) %MON forcing_qnet_del2            =   0.0000000000000E+00
(PID.TID 0000.0001) %MON forcing_qsw_max              =   0.0000000000000E+00
(PID.TID 0000.0001) %MON forcing_qsw_min              =   0.0000000000000E+00
(PID.TID 0000.0001) %MON forcing_qsw_mean             =   0.0000000000000E+00
(PID.TID 0000.0001) %MON forcing_qsw_sd               =   0.0000000000000E+00
(PID.TID 0000.0001) %MON forcing_qsw_del2             =   0.0000000000000E+00
(PID.TID 0000.0001) %MON forcing_empmr_max            =   0.0000000000000E+00
(PID.TID 0000.0001) %MON forcing_empmr_min            =   0.0000000000000E+00
(PID.TID 0000.0001) %MON forcing_empmr_mean           =   0.0000000000000E+00
(PID.TID 0000.0001) %MON forcing_empmr_sd             =   0.0000000000000E+00
(PID.TID 0000.0001) %MON forcing_empmr_del2           =   0.0000000000000E+00
(PID.TID 0000.0001) %MON forcing_fu_max               =   2.2785000205040E+00
(PID.TID 0000.0001) %MON forcing_fu_min               =   2.2785000205040E+00
(PID.TID 0000.0001) %MON forcing_fu_mean              =   2.2785000205040E+00
(PID.TID 0000.0001) %MON forcing_fu_sd                =   0.0000000000000E+00
(PID.TID 0000.0001) %MON forcing_fu_del2              =   0.0000000000000E+00
(PID.TID 0000.0001) %MON forcing_fv_max               =   1.1411664783955E+00
(PID.TID 0000.0001) %MON forcing_fv_min               =   1.1411664783955E+00
(PID.TID 0000.0001) %MON forcing_fv_mean              =   1.1411664783955E+00
(PID.TID 0000.0001) %MON forcing_fv_sd                =   0.0000000000000E+00
(PID.TID 0000.0001) %MON forcing_fv_del2              =   0.0000000000000E+00
(PID.TID 0000.0001) %MON advcfl_uvel_max              =   0.0000000000000E+00
(PID.TID 0000.0001) %MON advcfl_vvel_max              =   0.0000000000000E+00
(PID.TID 0000.0001) %MON advcfl_wvel_max              =   0.0000000000000E+00
(PID.TID 0000.0001) %MON advcfl_W_hf_max              =   0.0000000000000E+00
(PID.TID 0000.0001) %MON pe_b_mean                    =   0.0000000000000E+00
(PID.TID 0000.0001) %MON ke_max                       =   0.0000000000000E+00
(PID.TID 0000.0001) %MON ke_mean                      =   0.0000000000000E+00
(PID.TID 0000.0001) %MON ke_vol                       =   4.1199767883485E+13
(PID.TID 0000.0001) %MON vort_r_min                   =   0.0000000000000E+00
(PID.TID 0000.0001) %MON vort_r_max                   =   0.0000000000000E+00
(PID.TID 0000.0001) %MON vort_a_mean                  =  -4.5067801836625E-05
(PID.TID 0000.0001) %MON vort_a_sd                    =  -4.1359030627651E-25
(PID.TID 0000.0001) %MON vort_p_mean                  =  -4.5067801836625E-05
(PID.TID 0000.0001) %MON vort_p_sd                    =   0.0000000000000E+00
(PID.TID 0000.0001) %MON surfExpan_theta_mean         =   0.0000000000000E+00
(PID.TID 0000.0001) %MON surfExpan_salt_mean          =   0.0000000000000E+00
(PID.TID 0000.0001) // =======================================================
(PID.TID 0000.0001) // End MONITOR dynamic field statistics
(PID.TID 0000.0001) // =======================================================
(PID.TID 0000.0001) // =======================================================
(PID.TID 0000.0001) // Begin MONITOR ptracer field statistics
(PID.TID 0000.0001) // =======================================================
(PID.TID 0000.0001) %MON trcstat_ptracer01_max        =   2.1623998992289E+03
(PID.TID 0000.0001) %MON trcstat_ptracer01_min        =   2.0886366621437E+03
(PID.TID 0000.0001) %MON trcstat_ptracer01_mean       =   2.1557233177720E+03
(PID.TID 0000.0001) %MON trcstat_ptracer01_sd         =   1.1604915722718E+01
(PID.TID 0000.0001) %MON trcstat_ptracer01_del2       =   0.0000000000000E+00
(PID.TID 0000.0001) %MON trcstat_ptracer02_max        =   1.5341574218045E+01
(PID.TID 0000.0001) %MON trcstat_ptracer02_min        =   1.1869083173997E+01
(PID.TID 0000.0001) %MON trcstat_ptracer02_mean       =   1.4471659184147E+01
(PID.TID 0000.0001) %MON trcstat_ptracer02_sd         =   9.1975571318852E-01
(PID.TID 0000.0001) %MON trcstat_ptracer02_del2       =   0.0000000000000E+00
(PID.TID 0000.0001) %MON trcstat_ptracer03_max        =   3.7965484538000E-02
(PID.TID 0000.0001) %MON trcstat_ptracer03_min        =   2.9738634410040E-13
(PID.TID 0000.0001) %MON trcstat_ptracer03_mean       =   7.8005866165942E-03
(PID.TID 0000.0001) %MON trcstat_ptracer03_sd         =   1.0795959674656E-02
(PID.TID 0000.0001) %MON trcstat_ptracer03_del2       =   0.0000000000000E+00
(PID.TID 0000.0001) %MON trcstat_ptracer04_max        =   2.2355447273341E-03
(PID.TID 0000.0001) %MON trcstat_ptracer04_min        =   1.9435199461090E-14
(PID.TID 0000.0001) %MON trcstat_ptracer04_mean       =   3.3154389974232E-04
(PID.TID 0000.0001) %MON trcstat_ptracer04_sd         =   5.5005572664068E-04
(PID.TID 0000.0001) %MON trcstat_ptracer04_del2       =   0.0000000000000E+00
(PID.TID 0000.0001) %MON trcstat_ptracer05_max        =   9.3477775590175E-04
(PID.TID 0000.0001) %MON trcstat_ptracer05_min        =   6.0659231057289E-14
(PID.TID 0000.0001) %MON trcstat_ptracer05_mean       =   5.9365712709664E-04
(PID.TID 0000.0001) %MON trcstat_ptracer05_sd         =   3.8781790371851E-04
(PID.TID 0000.0001) %MON trcstat_ptracer05_del2       =   0.0000000000000E+00
(PID.TID 0000.0001) %MON trcstat_ptracer06_max        =   6.2034196544326E-09
(PID.TID 0000.0001) %MON trcstat_ptracer06_min        =   5.7918984990968E-09
(PID.TID 0000.0001) %MON trcstat_ptracer06_mean       =   6.1245050680729E-09
(PID.TID 0000.0001) %MON trcstat_ptracer06_sd         =   1.1166707487845E-10
(PID.TID 0000.0001) %MON trcstat_ptracer06_del2       =   0.0000000000000E+00
(PID.TID 0000.0001) %MON trcstat_ptracer07_max        =   6.2748038771340E-09
(PID.TID 0000.0001) %MON trcstat_ptracer07_min        =   5.9651247304930E-09
(PID.TID 0000.0001) %MON trcstat_ptracer07_mean       =   6.2171649118411E-09
(PID.TID 0000.0001) %MON trcstat_ptracer07_sd         =   8.4394502144515E-11
(PID.TID 0000.0001) %MON trcstat_ptracer07_del2       =   0.0000000000000E+00
(PID.TID 0000.0001) %MON trcstat_ptracer08_max        =   6.3369057806699E-09
(PID.TID 0000.0001) %MON trcstat_ptracer08_min        =   6.1039105319445E-09
(PID.TID 0000.0001) %MON trcstat_ptracer08_mean       =   6.2948892608414E-09
(PID.TID 0000.0001) %MON trcstat_ptracer08_sd         =   6.3342902079436E-11
(PID.TID 0000.0001) %MON trcstat_ptracer08_del2       =   0.0000000000000E+00
(PID.TID 0000.0001) %MON trcstat_ptracer09_max        =   6.3917731393140E-09
(PID.TID 0000.0001) %MON trcstat_ptracer09_min        =   6.2182889348023E-09
(PID.TID 0000.0001) %MON trcstat_ptracer09_mean       =   6.3612952031699E-09
(PID.TID 0000.0001) %MON trcstat_ptracer09_sd         =   4.7129190637120E-11
(PID.TID 0000.0001) %MON trcstat_ptracer09_del2       =   0.0000000000000E+00
(PID.TID 0000.0001) %MON trcstat_ptracer10_max        =   6.4374579686535E-09
(PID.TID 0000.0001) %MON trcstat_ptracer10_min        =   6.3093024020884E-09
(PID.TID 0000.0001) %MON trcstat_ptracer10_mean       =   6.4155268369110E-09
(PID.TID 0000.0001) %MON trcstat_ptracer10_sd         =   3.4734004236337E-11
(PID.TID 0000.0001) %MON trcstat_ptracer10_del2       =   0.0000000000000E+00
(PID.TID 0000.0001) %MON trcstat_ptracer11_max        =   6.4744143269609E-09
(PID.TID 0000.0001) %MON trcstat_ptracer11_min        =   6.3803108932439E-09
(PID.TID 0000.0001) %MON trcstat_ptracer11_mean       =   6.4587140832378E-09
(PID.TID 0000.0001) %MON trcstat_ptracer11_sd         =   2.5421013259402E-11
(PID.TID 0000.0001) %MON trcstat_ptracer11_del2       =   0.0000000000000E+00
(PID.TID 0000.0001) %MON trcstat_ptracer12_max        =   6.5042160507209E-09
(PID.TID 0000.0001) %MON trcstat_ptracer12_min        =   6.4355228036817E-09
(PID.TID 0000.0001) %MON trcstat_ptracer12_mean       =   6.4930339381053E-09
(PID.TID 0000.0001) %MON trcstat_ptracer12_sd         =   1.8490416193518E-11
(PID.TID 0000.0001) %MON trcstat_ptracer12_del2       =   0.0000000000000E+00
(PID.TID 0000.0001) %MON trcstat_ptracer13_max        =   6.5281666351302E-09
(PID.TID 0000.0001) %MON trcstat_ptracer13_min        =   6.4783934640179E-09
(PID.TID 0000.0001) %MON trcstat_ptracer13_mean       =   6.5202607813807E-09
(PID.TID 0000.0001) %MON trcstat_ptracer13_sd         =   1.3340308309131E-11
(PID.TID 0000.0001) %MON trcstat_ptracer13_del2       =   0.0000000000000E+00
(PID.TID 0000.0001) %MON trcstat_ptracer14_max        =   6.5473899352641E-09
(PID.TID 0000.0001) %MON trcstat_ptracer14_min        =   6.5114933609960E-09
(PID.TID 0000.0001) %MON trcstat_ptracer14_mean       =   6.5418102763169E-09
(PID.TID 0000.0001) %MON trcstat_ptracer14_sd         =   9.5285848560573E-12
(PID.TID 0000.0001) %MON trcstat_ptracer14_del2       =   0.0000000000000E+00
(PID.TID 0000.0001) %MON trcstat_ptracer15_max        =   6.5627615117521E-09
(PID.TID 0000.0001) %MON trcstat_ptracer15_min        =   6.5370711056818E-09
(PID.TID 0000.0001) %MON trcstat_ptracer15_mean       =   6.5588207755343E-09
(PID.TID 0000.0001) %MON trcstat_ptracer15_sd         =   6.7154591406017E-12
(PID.TID 0000.0001) %MON trcstat_ptracer15_del2       =   0.0000000000000E+00
(PID.TID 0000.0001) %MON trcstat_ptracer16_max        =   6.5749822054044E-09
(PID.TID 0000.0001) %MON trcstat_ptracer16_min        =   6.5568154145250E-09
(PID.TID 0000.0001) %MON trcstat_ptracer16_mean       =   6.5721900143092E-09
(PID.TID 0000.0001) %MON trcstat_ptracer16_sd         =   4.6675121364830E-12
(PID.TID 0000.0001) %MON trcstat_ptracer16_del2       =   0.0000000000000E+00
(PID.TID 0000.0001) %MON trcstat_ptracer17_max        =   6.5892826447291E-09
(PID.TID 0000.0001) %MON trcstat_ptracer17_min        =   6.5720038230437E-09
(PID.TID 0000.0001) %MON trcstat_ptracer17_mean       =   6.5826489565573E-09
(PID.TID 0000.0001) %MON trcstat_ptracer17_sd         =   3.2019191986906E-12
(PID.TID 0000.0001) %MON trcstat_ptracer17_del2       =   0.0000000000000E+00
(PID.TID 0000.0001) %MON trcstat_ptracer18_max        =   6.6009576313281E-09
(PID.TID 0000.0001) %MON trcstat_ptracer18_min        =   6.5829795678394E-09
(PID.TID 0000.0001) %MON trcstat_ptracer18_mean       =   6.5907788859013E-09
(PID.TID 0000.0001) %MON trcstat_ptracer18_sd         =   2.2185757753669E-12
(PID.TID 0000.0001) %MON trcstat_ptracer18_del2       =   0.0000000000000E+00
(PID.TID 0000.0001) %MON trcstat_ptracer19_max        =   6.6098148226271E-09
(PID.TID 0000.0001) %MON trcstat_ptracer19_min        =   6.5836558811789E-09
(PID.TID 0000.0001) %MON trcstat_ptracer19_mean       =   6.5970457117703E-09
(PID.TID 0000.0001) %MON trcstat_ptracer19_sd         =   1.7151298255068E-12
(PID.TID 0000.0001) %MON trcstat_ptracer19_del2       =   0.0000000000000E+00
(PID.TID 0000.0001) %MON trcstat_ptracer20_max        =   6.6164536932581E-09
(PID.TID 0000.0001) %MON trcstat_ptracer20_min        =   6.5796009307277E-09
(PID.TID 0000.0001) %MON trcstat_ptracer20_mean       =   6.6018233384335E-09
(PID.TID 0000.0001) %MON trcstat_ptracer20_sd         =   1.7456613930916E-12
(PID.TID 0000.0001) %MON trcstat_ptracer20_del2       =   0.0000000000000E+00
(PID.TID 0000.0001) %MON trcstat_ptracer21_max        =   6.6191882244680E-09
(PID.TID 0000.0001) %MON trcstat_ptracer21_min        =   6.6165688855097E-09
(PID.TID 0000.0001) %MON trcstat_ptracer21_mean       =   6.6188253838241E-09
(PID.TID 0000.0001) %MON trcstat_ptracer21_sd         =   7.1562312208294E-13
(PID.TID 0000.0001) %MON trcstat_ptracer21_del2       =   0.0000000000000E+00
(PID.TID 0000.0001) %MON trcstat_ptracer22_max        =   8.5025186974523E-10
(PID.TID 0000.0001) %MON trcstat_ptracer22_min        =   6.7258439535006E-10
(PID.TID 0000.0001) %MON trcstat_ptracer22_mean       =   7.0648468304684E-10
(PID.TID 0000.0001) %MON trcstat_ptracer22_sd         =   4.8013587805436E-11
(PID.TID 0000.0001) %MON trcstat_ptracer22_del2       =   0.0000000000000E+00
(PID.TID 0000.0001) %MON trcstat_ptracer23_max        =   7.7623217873426E-10
(PID.TID 0000.0001) %MON trcstat_ptracer23_min        =   6.4194738989881E-10
(PID.TID 0000.0001) %MON trcstat_ptracer23_mean       =   6.6673841548497E-10
(PID.TID 0000.0001) %MON trcstat_ptracer23_sd         =   3.6372055533467E-11
(PID.TID 0000.0001) %MON trcstat_ptracer23_del2       =   0.0000000000000E+00
(PID.TID 0000.0001) %MON trcstat_ptracer24_max        =   7.1644583803637E-10
(PID.TID 0000.0001) %MON trcstat_ptracer24_min        =   6.1529421241558E-10
(PID.TID 0000.0001) %MON trcstat_ptracer24_mean       =   6.3339024919549E-10
(PID.TID 0000.0001) %MON trcstat_ptracer24_sd         =   2.7364419094621E-11
(PID.TID 0000.0001) %MON trcstat_ptracer24_del2       =   0.0000000000000E+00
(PID.TID 0000.0001) %MON trcstat_ptracer25_max        =   6.6750456129595E-10
(PID.TID 0000.0001) %MON trcstat_ptracer25_min        =   5.9174598982156E-10
(PID.TID 0000.0001) %MON trcstat_ptracer25_mean       =   6.0491759133258E-10
(PID.TID 0000.0001) %MON trcstat_ptracer25_sd         =   2.0482727844124E-11
(PID.TID 0000.0001) %MON trcstat_ptracer25_del2       =   0.0000000000000E+00
(PID.TID 0000.0001) %MON trcstat_ptracer26_max        =   6.2823891474347E-10
(PID.TID 0000.0001) %MON trcstat_ptracer26_min        =   5.7213876692905E-10
(PID.TID 0000.0001) %MON trcstat_ptracer26_mean       =   5.8164713041232E-10
(PID.TID 0000.0001) %MON trcstat_ptracer26_sd         =   1.5170436363060E-11
(PID.TID 0000.0001) %MON trcstat_ptracer26_del2       =   0.0000000000000E+00
(PID.TID 0000.0001) %MON trcstat_ptracer27_max        =   5.9758552066631E-10
(PID.TID 0000.0001) %MON trcstat_ptracer27_min        =   5.5627766894306E-10
(PID.TID 0000.0001) %MON trcstat_ptracer27_mean       =   5.6311597235857E-10
(PID.TID 0000.0001) %MON trcstat_ptracer27_sd         =   1.1175124826236E-11
(PID.TID 0000.0001) %MON trcstat_ptracer27_del2       =   0.0000000000000E+00
(PID.TID 0000.0001) %MON trcstat_ptracer28_max        =   5.7372732895908E-10
(PID.TID 0000.0001) %MON trcstat_ptracer28_min        =   5.4348722956106E-10
(PID.TID 0000.0001) %MON trcstat_ptracer28_mean       =   5.4838559957698E-10
(PID.TID 0000.0001) %MON trcstat_ptracer28_sd         =   8.1862225598128E-12
(PID.TID 0000.0001) %MON trcstat_ptracer28_del2       =   0.0000000000000E+00
(PID.TID 0000.0001) %MON trcstat_ptracer29_max        =   5.5520319883222E-10
(PID.TID 0000.0001) %MON trcstat_ptracer29_min        =   5.3320800878454E-10
(PID.TID 0000.0001) %MON trcstat_ptracer29_mean       =   5.3669942886085E-10
(PID.TID 0000.0001) %MON trcstat_ptracer29_sd         =   5.9578159728842E-12
(PID.TID 0000.0001) %MON trcstat_ptracer29_del2       =   0.0000000000000E+00
(PID.TID 0000.0001) %MON trcstat_ptracer30_max        =   5.4084597926980E-10
(PID.TID 0000.0001) %MON trcstat_ptracer30_min        =   5.2497823777861E-10
(PID.TID 0000.0001) %MON trcstat_ptracer30_mean       =   5.2744998887143E-10
(PID.TID 0000.0001) %MON trcstat_ptracer30_sd         =   4.2995930787891E-12
(PID.TID 0000.0001) %MON trcstat_ptracer30_del2       =   0.0000000000000E+00
(PID.TID 0000.0001) %MON trcstat_ptracer31_max        =   5.2974006375078E-10
(PID.TID 0000.0001) %MON trcstat_ptracer31_min        =   5.1841782525591E-10
(PID.TID 0000.0001) %MON trcstat_ptracer31_mean       =   5.2015071946468E-10
(PID.TID 0000.0001) %MON trcstat_ptracer31_sd         =   3.0670650288691E-12
(PID.TID 0000.0001) %MON trcstat_ptracer31_del2       =   0.0000000000000E+00
(PID.TID 0000.0001) %MON trcstat_ptracer32_max        =   5.2116797156605E-10
(PID.TID 0000.0001) %MON trcstat_ptracer32_min        =   5.1321463400380E-10
(PID.TID 0000.0001) %MON trcstat_ptracer32_mean       =   5.1441221764105E-10
(PID.TID 0000.0001) %MON trcstat_ptracer32_sd         =   2.1517773498358E-12
(PID.TID 0000.0001) %MON trcstat_ptracer32_del2       =   0.0000000000000E+00
(PID.TID 0000.0001) %MON trcstat_ptracer33_max        =   5.1457501600119E-10
(PID.TID 0000.0001) %MON trcstat_ptracer33_min        =   5.0911283317019E-10
(PID.TID 0000.0001) %MON trcstat_ptracer33_mean       =   5.0992290271507E-10
(PID.TID 0000.0001) %MON trcstat_ptracer33_sd         =   1.4733544960468E-12
(PID.TID 0000.0001) %MON trcstat_ptracer33_del2       =   0.0000000000000E+00
(PID.TID 0000.0001) %MON trcstat_ptracer34_max        =   5.0952912121535E-10
(PID.TID 0000.0001) %MON trcstat_ptracer34_min        =   5.0590309041139E-10
(PID.TID 0000.0001) %MON trcstat_ptracer34_mean       =   5.0643327009082E-10
(PID.TID 0000.0001) %MON trcstat_ptracer34_sd         =   9.7307810584007E-13
(PID.TID 0000.0001) %MON trcstat_ptracer34_del2       =   0.0000000000000E+00
(PID.TID 0000.0001) %MON trcstat_ptracer35_max        =   5.0569414949914E-10
(PID.TID 0000.0001) %MON trcstat_ptracer35_min        =   5.0308090280208E-10
(PID.TID 0000.0001) %MON trcstat_ptracer35_mean       =   5.0374333625113E-10
(PID.TID 0000.0001) %MON trcstat_ptracer35_sd         =   6.1061214687821E-13
(PID.TID 0000.0001) %MON trcstat_ptracer35_del2       =   0.0000000000000E+00
(PID.TID 0000.0001) %MON trcstat_ptracer36_max        =   5.0280986389730E-10
(PID.TID 0000.0001) %MON trcstat_ptracer36_min        =   4.9939547895715E-10
(PID.TID 0000.0001) %MON trcstat_ptracer36_mean       =   5.0169260862357E-10
(PID.TID 0000.0001) %MON trcstat_ptracer36_sd         =   3.6762815663832E-13
(PID.TID 0000.0001) %MON trcstat_ptracer36_del2       =   0.0000000000000E+00
(PID.TID 0000.0001) %MON trcstat_ptracer37_max        =   4.9956135345586E-10
(PID.TID 0000.0001) %MON trcstat_ptracer37_min        =   4.9936366750545E-10
(PID.TID 0000.0001) %MON trcstat_ptracer37_mean       =   4.9953396925753E-10
(PID.TID 0000.0001) %MON trcstat_ptracer37_sd         =   5.4009289855822E-14
(PID.TID 0000.0001) %MON trcstat_ptracer37_del2       =   0.0000000000000E+00
(PID.TID 0000.0001) %MON trcstat_ptracer38_max        =   3.8872771096942E-14
(PID.TID 0000.0001) %MON trcstat_ptracer38_min        =   2.9925109025430E-14
(PID.TID 0000.0001) %MON trcstat_ptracer38_mean       =   3.4787456453675E-14
(PID.TID 0000.0001) %MON trcstat_ptracer38_sd         =   3.1566307172526E-15
(PID.TID 0000.0001) %MON trcstat_ptracer38_del2       =   0.0000000000000E+00
(PID.TID 0000.0001) %MON trcstat_ptracer39_max        =   3.7353273693670E-14
(PID.TID 0000.0001) %MON trcstat_ptracer39_min        =   2.9925096945158E-14
(PID.TID 0000.0001) %MON trcstat_ptracer39_mean       =   3.3939632267210E-14
(PID.TID 0000.0001) %MON trcstat_ptracer39_sd         =   2.6093062362268E-15
(PID.TID 0000.0001) %MON trcstat_ptracer39_del2       =   0.0000000000000E+00
(PID.TID 0000.0001) %MON trcstat_ptracer40_max        =   3.6064894643512E-14
(PID.TID 0000.0001) %MON trcstat_ptracer40_min        =   2.9925088750735E-14
(PID.TID 0000.0001) %MON trcstat_ptracer40_mean       =   3.3228931563835E-14
(PID.TID 0000.0001) %MON trcstat_ptracer40_sd         =   2.1496119186491E-15
(PID.TID 0000.0001) %MON trcstat_ptracer40_del2       =   0.0000000000000E+00
(PID.TID 0000.0001) %MON trcstat_ptracer41_max        =   3.4982590305439E-14
(PID.TID 0000.0001) %MON trcstat_ptracer41_min        =   2.9925083248969E-14
(PID.TID 0000.0001) %MON trcstat_ptracer41_mean       =   3.2635528881456E-14
(PID.TID 0000.0001) %MON trcstat_ptracer41_sd         =   1.7652412116211E-15
(PID.TID 0000.0001) %MON trcstat_ptracer41_del2       =   0.0000000000000E+00
(PID.TID 0000.0001) %MON trcstat_ptracer42_max        =   3.4072415449631E-14
(PID.TID 0000.0001) %MON trcstat_ptracer42_min        =   2.9925079599208E-14
(PID.TID 0000.0001) %MON trcstat_ptracer42_mean       =   3.2140517756164E-14
(PID.TID 0000.0001) %MON trcstat_ptracer42_sd         =   1.4441892811410E-15
(PID.TID 0000.0001) %MON trcstat_ptracer42_del2       =   0.0000000000000E+00
(PID.TID 0000.0001) %MON trcstat_ptracer43_max        =   3.3310495463584E-14
(PID.TID 0000.0001) %MON trcstat_ptracer43_min        =   2.9925077219621E-14
(PID.TID 0000.0001) %MON trcstat_ptracer43_mean       =   3.1728451996916E-14
(PID.TID 0000.0001) %MON trcstat_ptracer43_sd         =   1.1766357729238E-15
(PID.TID 0000.0001) %MON trcstat_ptracer43_del2       =   0.0000000000000E+00
(PID.TID 0000.0001) %MON trcstat_ptracer44_max        =   3.2675359379213E-14
(PID.TID 0000.0001) %MON trcstat_ptracer44_min        =   2.9925075704729E-14
(PID.TID 0000.0001) %MON trcstat_ptracer44_mean       =   3.1386492519485E-14
(PID.TID 0000.0001) %MON trcstat_ptracer44_sd         =   9.5438901401202E-16
(PID.TID 0000.0001) %MON trcstat_ptracer44_del2       =   0.0000000000000E+00
(PID.TID 0000.0001) %MON trcstat_ptracer45_max        =   3.2148166825653E-14
(PID.TID 0000.0001) %MON trcstat_ptracer45_min        =   2.9925074769041E-14
(PID.TID 0000.0001) %MON trcstat_ptracer45_mean       =   3.1103613012002E-14
(PID.TID 0000.0001) %MON trcstat_ptracer45_sd         =   7.7037533791298E-16
(PID.TID 0000.0001) %MON trcstat_ptracer45_del2       =   0.0000000000000E+00
(PID.TID 0000.0001) %MON trcstat_ptracer46_max        =   3.1712290659903E-14
(PID.TID 0000.0001) %MON trcstat_ptracer46_min        =   2.9925074210509E-14
(PID.TID 0000.0001) %MON trcstat_ptracer46_mean       =   3.0870409533358E-14
(PID.TID 0000.0001) %MON trcstat_ptracer46_sd         =   6.1853477513498E-16
(PID.TID 0000.0001) %MON trcstat_ptracer46_del2       =   0.0000000000000E+00
(PID.TID 0000.0001) %MON trcstat_ptracer47_max        =   3.1353434977955E-14
(PID.TID 0000.0001) %MON trcstat_ptracer47_min        =   2.9925073885320E-14
(PID.TID 0000.0001) %MON trcstat_ptracer47_mean       =   3.0678902009703E-14
(PID.TID 0000.0001) %MON trcstat_ptracer47_sd         =   4.9370928159434E-16
(PID.TID 0000.0001) %MON trcstat_ptracer47_del2       =   0.0000000000000E+00
(PID.TID 0000.0001) %MON trcstat_ptracer48_max        =   3.1059279038745E-14
(PID.TID 0000.0001) %MON trcstat_ptracer48_min        =   2.9925073690724E-14
(PID.TID 0000.0001) %MON trcstat_ptracer48_mean       =   3.0522334408323E-14
(PID.TID 0000.0001) %MON trcstat_ptracer48_sd         =   3.9152218812536E-16
(PID.TID 0000.0001) %MON trcstat_ptracer48_del2       =   0.0000000000000E+00
(PID.TID 0000.0001) %MON trcstat_ptracer49_max        =   3.0819423703061E-14
(PID.TID 0000.0001) %MON trcstat_ptracer49_min        =   2.9925073553487E-14
(PID.TID 0000.0001) %MON trcstat_ptracer49_mean       =   3.0394992773950E-14
(PID.TID 0000.0001) %MON trcstat_ptracer49_sd         =   3.0826917525398E-16
(PID.TID 0000.0001) %MON trcstat_ptracer49_del2       =   0.0000000000000E+00
(PID.TID 0000.0001) %MON trcstat_ptracer50_max        =   3.0624984328024E-14
(PID.TID 0000.0001) %MON trcstat_ptracer50_min        =   2.9925073422189E-14
(PID.TID 0000.0001) %MON trcstat_ptracer50_mean       =   3.0292039099552E-14
(PID.TID 0000.0001) %MON trcstat_ptracer50_sd         =   2.4081665466102E-16
(PID.TID 0000.0001) %MON trcstat_ptracer50_del2       =   0.0000000000000E+00
(PID.TID 0000.0001) %MON trcstat_ptracer51_max        =   3.0468475784467E-14
(PID.TID 0000.0001) %MON trcstat_ptracer51_min        =   2.9925073262083E-14
(PID.TID 0000.0001) %MON trcstat_ptracer51_mean       =   3.0209369914849E-14
(PID.TID 0000.0001) %MON trcstat_ptracer51_sd         =   1.8652133456434E-16
(PID.TID 0000.0001) %MON trcstat_ptracer51_del2       =   0.0000000000000E+00
(PID.TID 0000.0001) %MON trcstat_ptracer52_max        =   3.0343504903179E-14
(PID.TID 0000.0001) %MON trcstat_ptracer52_min        =   2.9925073051542E-14
(PID.TID 0000.0001) %MON trcstat_ptracer52_mean       =   3.0143497479670E-14
(PID.TID 0000.0001) %MON trcstat_ptracer52_sd         =   1.4317574071326E-16
(PID.TID 0000.0001) %MON trcstat_ptracer52_del2       =   0.0000000000000E+00
(PID.TID 0000.0001) %MON trcstat_ptracer53_max        =   2.9973681529077E-14
(PID.TID 0000.0001) %MON trcstat_ptracer53_min        =   2.9961820371925E-14
(PID.TID 0000.0001) %MON trcstat_ptracer53_mean       =   2.9972038477160E-14
(PID.TID 0000.0001) %MON trcstat_ptracer53_sd         =   3.2405574261382E-18
(PID.TID 0000.0001) %MON trcstat_ptracer53_del2       =   0.0000000000000E+00
(PID.TID 0000.0001) %MON trcstat_ptracer54_max        =   1.2421355564121E-09
(PID.TID 0000.0001) %MON trcstat_ptracer54_min        =   9.9750205454334E-10
(PID.TID 0000.0001) %MON trcstat_ptracer54_mean       =   1.0054445551333E-09
(PID.TID 0000.0001) %MON trcstat_ptracer54_sd         =   4.2237202778413E-11
(PID.TID 0000.0001) %MON trcstat_ptracer54_del2       =   0.0000000000000E+00
(PID.TID 0000.0001) %MON trcstat_ptracer55_max        =   1.3875473402661E-09
(PID.TID 0000.0001) %MON trcstat_ptracer55_min        =   9.9750205454334E-10
(PID.TID 0000.0001) %MON trcstat_ptracer55_mean       =   1.0091842047235E-09
(PID.TID 0000.0001) %MON trcstat_ptracer55_sd         =   6.2765867048597E-11
(PID.TID 0000.0001) %MON trcstat_ptracer55_del2       =   0.0000000000000E+00
(PID.TID 0000.0001) %MON trcstat_ptracer56_max        =   1.2994581691880E-09
(PID.TID 0000.0001) %MON trcstat_ptracer56_min        =   9.9750205454334E-10
(PID.TID 0000.0001) %MON trcstat_ptracer56_mean       =   1.0072732544055E-09
(PID.TID 0000.0001) %MON trcstat_ptracer56_sd         =   5.1976424447291E-11
(PID.TID 0000.0001) %MON trcstat_ptracer56_del2       =   0.0000000000000E+00
(PID.TID 0000.0001) %MON trcstat_ptracer57_max        =   1.3487244081519E-09
(PID.TID 0000.0001) %MON trcstat_ptracer57_min        =   9.9750205454334E-10
(PID.TID 0000.0001) %MON trcstat_ptracer57_mean       =   1.0086590875769E-09
(PID.TID 0000.0001) %MON trcstat_ptracer57_sd         =   5.9455840831370E-11
(PID.TID 0000.0001) %MON trcstat_ptracer57_del2       =   0.0000000000000E+00
(PID.TID 0000.0001) %MON trcstat_ptracer58_max        =   1.2662371013117E-09
(PID.TID 0000.0001) %MON trcstat_ptracer58_min        =   9.9750205454334E-10
(PID.TID 0000.0001) %MON trcstat_ptracer58_mean       =   1.0063056716805E-09
(PID.TID 0000.0001) %MON trcstat_ptracer58_sd         =   4.6776135705269E-11
(PID.TID 0000.0001) %MON trcstat_ptracer58_del2       =   0.0000000000000E+00
(PID.TID 0000.0001) %MON trcstat_ptracer59_max        =   1.2022286088173E-09
(PID.TID 0000.0001) %MON trcstat_ptracer59_min        =   9.9750205454334E-10
(PID.TID 0000.0001) %MON trcstat_ptracer59_mean       =   1.0043666501659E-09
(PID.TID 0000.0001) %MON trcstat_ptracer59_sd         =   3.6416171357691E-11
(PID.TID 0000.0001) %MON trcstat_ptracer59_del2       =   0.0000000000000E+00
(PID.TID 0000.0001) %MON trcstat_ptracer60_max        =   1.1523048332455E-09
(PID.TID 0000.0001) %MON trcstat_ptracer60_min        =   9.9750205454334E-10
(PID.TID 0000.0001) %MON trcstat_ptracer60_mean       =   1.0027125353728E-09
(PID.TID 0000.0001) %MON trcstat_ptracer60_sd         =   2.7631591682166E-11
(PID.TID 0000.0001) %MON trcstat_ptracer60_del2       =   0.0000000000000E+00
(PID.TID 0000.0001) %MON trcstat_ptracer61_max        =   1.1137311381235E-09
(PID.TID 0000.0001) %MON trcstat_ptracer61_min        =   9.9750205454334E-10
(PID.TID 0000.0001) %MON trcstat_ptracer61_mean       =   1.0014234561273E-09
(PID.TID 0000.0001) %MON trcstat_ptracer61_sd         =   2.0786987060752E-11
(PID.TID 0000.0001) %MON trcstat_ptracer61_del2       =   0.0000000000000E+00
(PID.TID 0000.0001) %MON trcstat_ptracer62_max        =   1.0839628183096E-09
(PID.TID 0000.0001) %MON trcstat_ptracer62_min        =   9.9750205454334E-10
(PID.TID 0000.0001) %MON trcstat_ptracer62_mean       =   1.0004237990932E-09
(PID.TID 0000.0001) %MON trcstat_ptracer62_sd         =   1.5478310060022E-11
(PID.TID 0000.0001) %MON trcstat_ptracer62_del2       =   0.0000000000000E+00
(PID.TID 0000.0001) %MON trcstat_ptracer63_max        =   1.0611563326731E-09
(PID.TID 0000.0001) %MON trcstat_ptracer63_min        =   9.9750205454334E-10
(PID.TID 0000.0001) %MON trcstat_ptracer63_mean       =   9.9966870260420E-10
(PID.TID 0000.0001) %MON trcstat_ptracer63_sd         =   1.1463860607527E-11
(PID.TID 0000.0001) %MON trcstat_ptracer63_del2       =   0.0000000000000E+00
(PID.TID 0000.0001) %MON trcstat_ptracer64_max        =   1.0434693766574E-09
(PID.TID 0000.0001) %MON trcstat_ptracer64_min        =   9.9750205454334E-10
(PID.TID 0000.0001) %MON trcstat_ptracer64_mean       =   9.9906724620216E-10
(PID.TID 0000.0001) %MON trcstat_ptracer64_sd         =   8.2660061037515E-12
(PID.TID 0000.0001) %MON trcstat_ptracer64_del2       =   0.0000000000000E+00
(PID.TID 0000.0001) %MON trcstat_ptracer65_max        =   1.0299038516954E-09
(PID.TID 0000.0001) %MON trcstat_ptracer65_min        =   9.9750205454334E-10
(PID.TID 0000.0001) %MON trcstat_ptracer65_mean       =   9.9860562071736E-10
(PID.TID 0000.0001) %MON trcstat_ptracer65_sd         =   5.8079565056244E-12
(PID.TID 0000.0001) %MON trcstat_ptracer65_del2       =   0.0000000000000E+00
(PID.TID 0000.0001) %MON trcstat_ptracer66_max        =   1.0195458348687E-09
(PID.TID 0000.0001) %MON trcstat_ptracer66_min        =   9.9750205454334E-10
(PID.TID 0000.0001) %MON trcstat_ptracer66_mean       =   9.9825298249783E-10
(PID.TID 0000.0001) %MON trcstat_ptracer66_sd         =   3.9265589094626E-12
(PID.TID 0000.0001) %MON trcstat_ptracer66_del2       =   0.0000000000000E+00
(PID.TID 0000.0001) %MON trcstat_ptracer67_max        =   1.0116896357012E-09
(PID.TID 0000.0001) %MON trcstat_ptracer67_min        =   9.9750205454334E-10
(PID.TID 0000.0001) %MON trcstat_ptracer67_mean       =   9.9798544438596E-10
(PID.TID 0000.0001) %MON trcstat_ptracer67_sd         =   2.4979502173672E-12
(PID.TID 0000.0001) %MON trcstat_ptracer67_del2       =   0.0000000000000E+00
(PID.TID 0000.0001) %MON trcstat_ptracer68_max        =   1.0057885892555E-09
(PID.TID 0000.0001) %MON trcstat_ptracer68_min        =   9.9750205454334E-10
(PID.TID 0000.0001) %MON trcstat_ptracer68_mean       =   9.9778446357316E-10
(PID.TID 0000.0001) %MON trcstat_ptracer68_sd         =   1.4367142811738E-12
(PID.TID 0000.0001) %MON trcstat_ptracer68_del2       =   0.0000000000000E+00
(PID.TID 0000.0001) %MON trcstat_ptracer69_max        =   1.1497596627881E-09
(PID.TID 0000.0001) %MON trcstat_ptracer69_min        =   1.1495509728332E-09
(PID.TID 0000.0001) %MON trcstat_ptracer69_mean       =   1.1497037918275E-09
(PID.TID 0000.0001) %MON trcstat_ptracer69_sd         =   5.0118536028087E-14
(PID.TID 0000.0001) %MON trcstat_ptracer69_del2       =   0.0000000000000E+00
(PID.TID 0000.0001) %MON trcstat_ptracer70_max        =   1.0265142248515E-10
(PID.TID 0000.0001) %MON trcstat_ptracer70_min        =   9.8393563255486E-11
(PID.TID 0000.0001) %MON trcstat_ptracer70_mean       =   1.0180033167864E-10
(PID.TID 0000.0001) %MON trcstat_ptracer70_sd         =   3.0649336468704E-13
(PID.TID 0000.0001) %MON trcstat_ptracer70_del2       =   0.0000000000000E+00
(PID.TID 0000.0001) %MON trcstat_ptracer71_max        =   1.2501949145983E-11
(PID.TID 0000.0001) %MON trcstat_ptracer71_min        =   1.1957839939061E-11
(PID.TID 0000.0001) %MON trcstat_ptracer71_mean       =   1.2046807794049E-11
(PID.TID 0000.0001) %MON trcstat_ptracer71_sd         =   1.4753887921620E-13
(PID.TID 0000.0001) %MON trcstat_ptracer71_del2       =   0.0000000000000E+00
(PID.TID 0000.0001) %MON trcstat_ptracer72_max        =   2.7198265126908E-01
(PID.TID 0000.0001) %MON trcstat_ptracer72_min        =   7.9043882991870E-12
(PID.TID 0000.0001) %MON trcstat_ptracer72_mean       =   3.2988280383639E-02
(PID.TID 0000.0001) %MON trcstat_ptracer72_sd         =   8.3290135429756E-02
(PID.TID 0000.0001) %MON trcstat_ptracer72_del2       =   0.0000000000000E+00
(PID.TID 0000.0001) %MON trcstat_ptracer73_max        =   3.0339928720628E-02
(PID.TID 0000.0001) %MON trcstat_ptracer73_min        =   1.5190516075076E-12
(PID.TID 0000.0001) %MON trcstat_ptracer73_mean       =   1.4925444151957E-02
(PID.TID 0000.0001) %MON trcstat_ptracer73_sd         =   1.1108043004251E-02
(PID.TID 0000.0001) %MON trcstat_ptracer73_del2       =   0.0000000000000E+00
(PID.TID 0000.0001) %MON trcstat_ptracer74_max        =   1.6998916287929E-05
(PID.TID 0000.0001) %MON trcstat_ptracer74_min        =   4.6251541881460E-16
(PID.TID 0000.0001) %MON trcstat_ptracer74_mean       =   2.0617675227369E-06
(PID.TID 0000.0001) %MON trcstat_ptracer74_sd         =   5.2056334591188E-06
(PID.TID 0000.0001) %MON trcstat_ptracer74_del2       =   0.0000000000000E+00
(PID.TID 0000.0001) %MON trcstat_ptracer75_max        =   1.8979397373592E-06
(PID.TID 0000.0001) %MON trcstat_ptracer75_min        =   9.4981238240107E-17
(PID.TID 0000.0001) %MON trcstat_ptracer75_mean       =   9.3370607446663E-07
(PID.TID 0000.0001) %MON trcstat_ptracer75_sd         =   6.9486568265245E-07
(PID.TID 0000.0001) %MON trcstat_ptracer75_del2       =   0.0000000000000E+00
(PID.TID 0000.0001) // =======================================================
(PID.TID 0000.0001) // End MONITOR ptracers field statistics
(PID.TID 0000.0001) // =======================================================
(PID.TID 0000.0001) // =======================================================
(PID.TID 0000.0001) // Begin MONITOR dynamic field statistics
(PID.TID 0000.0001) // =======================================================
(PID.TID 0000.0001) %MON time_tsnumber                =                     2
(PID.TID 0000.0001) %MON time_secondsf                =   2.1600000000000E+04
(PID.TID 0000.0001) %MON dynstat_eta_max              =   0.0000000000000E+00
(PID.TID 0000.0001) %MON dynstat_eta_min              =   0.0000000000000E+00
(PID.TID 0000.0001) %MON dynstat_eta_mean             =   0.0000000000000E+00
(PID.TID 0000.0001) %MON dynstat_eta_sd               =   0.0000000000000E+00
(PID.TID 0000.0001) %MON dynstat_eta_del2             =   0.0000000000000E+00
(PID.TID 0000.0001) %MON dynstat_uvel_max             =   0.0000000000000E+00
(PID.TID 0000.0001) %MON dynstat_uvel_min             =   0.0000000000000E+00
(PID.TID 0000.0001) %MON dynstat_uvel_mean            =   0.0000000000000E+00
(PID.TID 0000.0001) %MON dynstat_uvel_sd              =   0.0000000000000E+00
(PID.TID 0000.0001) %MON dynstat_uvel_del2            =   0.0000000000000E+00
(PID.TID 0000.0001) %MON dynstat_vvel_max             =   0.0000000000000E+00
(PID.TID 0000.0001) %MON dynstat_vvel_min             =   0.0000000000000E+00
(PID.TID 0000.0001) %MON dynstat_vvel_mean            =   0.0000000000000E+00
(PID.TID 0000.0001) %MON dynstat_vvel_sd              =   0.0000000000000E+00
(PID.TID 0000.0001) %MON dynstat_vvel_del2            =   0.0000000000000E+00
(PID.TID 0000.0001) %MON dynstat_wvel_max             =   0.0000000000000E+00
(PID.TID 0000.0001) %MON dynstat_wvel_min             =   0.0000000000000E+00
(PID.TID 0000.0001) %MON dynstat_wvel_mean            =   0.0000000000000E+00
(PID.TID 0000.0001) %MON dynstat_wvel_sd              =   0.0000000000000E+00
(PID.TID 0000.0001) %MON dynstat_wvel_del2            =   0.0000000000000E+00
(PID.TID 0000.0001) %MON dynstat_theta_max            =   6.5021898417791E+00
(PID.TID 0000.0001) %MON dynstat_theta_min            =  -9.3888275713119E-01
(PID.TID 0000.0001) %MON dynstat_theta_mean           =   1.5608386202520E-01
(PID.TID 0000.0001) %MON dynstat_theta_sd             =   2.0855057882648E+00
(PID.TID 0000.0001) %MON dynstat_theta_del2           =   0.0000000000000E+00
(PID.TID 0000.0001) %MON dynstat_salt_max             =   3.5000000000000E+01
(PID.TID 0000.0001) %MON dynstat_salt_min             =   3.5000000000000E+01
(PID.TID 0000.0001) %MON dynstat_salt_mean            =   3.5000000000000E+01
(PID.TID 0000.0001) %MON dynstat_salt_sd              =   7.1054273576010E-15
(PID.TID 0000.0001) %MON dynstat_salt_del2            =   0.0000000000000E+00
(PID.TID 0000.0001) %MON dynstat_sst_max              =   6.5021898417791E+00
(PID.TID 0000.0001) %MON dynstat_sst_min              =   6.5021898417791E+00
(PID.TID 0000.0001) %MON dynstat_sst_mean             =   6.5021898417791E+00
(PID.TID 0000.0001) %MON dynstat_sst_sd               =   0.0000000000000E+00
(PID.TID 0000.0001) %MON dynstat_sst_del2             =   0.0000000000000E+00
(PID.TID 0000.0001) %MON dynstat_sss_max              =   3.5000000000000E+01
(PID.TID 0000.0001) %MON dynstat_sss_min              =   3.5000000000000E+01
(PID.TID 0000.0001) %MON dynstat_sss_mean             =   3.5000000000000E+01
(PID.TID 0000.0001) %MON dynstat_sss_sd               =   0.0000000000000E+00
(PID.TID 0000.0001) %MON dynstat_sss_del2             =   0.0000000000000E+00
(PID.TID 0000.0001) %MON forcing_qnet_max             =   0.0000000000000E+00
(PID.TID 0000.0001) %MON forcing_qnet_min             =   0.0000000000000E+00
(PID.TID 0000.0001) %MON forcing_qnet_mean            =   0.0000000000000E+00
(PID.TID 0000.0001) %MON forcing_qnet_sd              =   0.0000000000000E+00
(PID.TID 0000.0001) %MON forcing_qnet_del2            =   0.0000000000000E+00
(PID.TID 0000.0001) %MON forcing_qsw_max              =   0.0000000000000E+00
(PID.TID 0000.0001) %MON forcing_qsw_min              =   0.0000000000000E+00
(PID.TID 0000.0001) %MON forcing_qsw_mean             =   0.0000000000000E+00
(PID.TID 0000.0001) %MON forcing_qsw_sd               =   0.0000000000000E+00
(PID.TID 0000.0001) %MON forcing_qsw_del2             =   0.0000000000000E+00
(PID.TID 0000.0001) %MON forcing_empmr_max            =   0.0000000000000E+00
(PID.TID 0000.0001) %MON forcing_empmr_min            =   0.0000000000000E+00
(PID.TID 0000.0001) %MON forcing_empmr_mean           =   0.0000000000000E+00
(PID.TID 0000.0001) %MON forcing_empmr_sd             =   0.0000000000000E+00
(PID.TID 0000.0001) %MON forcing_empmr_del2           =   0.0000000000000E+00
(PID.TID 0000.0001) %MON forcing_fu_max               =   2.2750347450376E+00
(PID.TID 0000.0001) %MON forcing_fu_min               =   2.2750347450376E+00
(PID.TID 0000.0001) %MON forcing_fu_mean              =   2.2750347450376E+00
(PID.TID 0000.0001) %MON forcing_fu_sd                =   0.0000000000000E+00
(PID.TID 0000.0001) %MON forcing_fu_del2              =   0.0000000000000E+00
(PID.TID 0000.0001) %MON forcing_fv_max               =   1.1445845323304E+00
(PID.TID 0000.0001) %MON forcing_fv_min               =   1.1445845323304E+00
(PID.TID 0000.0001) %MON forcing_fv_mean              =   1.1445845323304E+00
(PID.TID 0000.0001) %MON forcing_fv_sd                =   0.0000000000000E+00
(PID.TID 0000.0001) %MON forcing_fv_del2              =   0.0000000000000E+00
(PID.TID 0000.0001) %MON advcfl_uvel_max              =   0.0000000000000E+00
(PID.TID 0000.0001) %MON advcfl_vvel_max              =   0.0000000000000E+00
(PID.TID 0000.0001) %MON advcfl_wvel_max              =   0.0000000000000E+00
(PID.TID 0000.0001) %MON advcfl_W_hf_max              =   0.0000000000000E+00
(PID.TID 0000.0001) %MON pe_b_mean                    =   0.0000000000000E+00
(PID.TID 0000.0001) %MON ke_max                       =   0.0000000000000E+00
(PID.TID 0000.0001) %MON ke_mean                      =   0.0000000000000E+00
(PID.TID 0000.0001) %MON ke_vol                       =   4.1199767883485E+13
(PID.TID 0000.0001) %MON vort_r_min                   =   0.0000000000000E+00
(PID.TID 0000.0001) %MON vort_r_max                   =   0.0000000000000E+00
(PID.TID 0000.0001) %MON vort_a_mean                  =  -4.5067801836625E-05
(PID.TID 0000.0001) %MON vort_a_sd                    =  -4.1359030627651E-25
(PID.TID 0000.0001) %MON vort_p_mean                  =  -4.5067801836625E-05
(PID.TID 0000.0001) %MON vort_p_sd                    =   0.0000000000000E+00
(PID.TID 0000.0001) %MON surfExpan_theta_mean         =   0.0000000000000E+00
(PID.TID 0000.0001) %MON surfExpan_salt_mean          =   0.0000000000000E+00
(PID.TID 0000.0001) // =======================================================
(PID.TID 0000.0001) // End MONITOR dynamic field statistics
(PID.TID 0000.0001) // =======================================================
(PID.TID 0000.0001) // =======================================================
(PID.TID 0000.0001) // Begin MONITOR ptracer field statistics
(PID.TID 0000.0001) // =======================================================
(PID.TID 0000.0001) %MON trcstat_ptracer01_max        =   2.1623998961148E+03
(PID.TID 0000.0001) %MON trcstat_ptracer01_min        =   2.0908348083022E+03
(PID.TID 0000.0001) %MON trcstat_ptracer01_mean       =   2.1557233177740E+03
(PID.TID 0000.0001) %MON trcstat_ptracer01_sd         =   1.1578675045931E+01
(PID.TID 0000.0001) %MON trcstat_ptracer01_del2       =   0.0000000000000E+00
(PID.TID 0000.0001) %MON trcstat_ptracer02_max        =   1.5341548029387E+01
(PID.TID 0000.0001) %MON trcstat_ptracer02_min        =   1.1875488085501E+01
(PID.TID 0000.0001) %MON trcstat_ptracer02_mean       =   1.4471756629395E+01
(PID.TID 0000.0001) %MON trcstat_ptracer02_sd         =   9.1962376195247E-01
(PID.TID 0000.0001) %MON trcstat_ptracer02_del2       =   0.0000000000000E+00
(PID.TID 0000.0001) %MON trcstat_ptracer03_max        =   3.8030447930672E-02
(PID.TID 0000.0001) %MON trcstat_ptracer03_min        =   8.9249817625096E-13
(PID.TID 0000.0001) %MON trcstat_ptracer03_mean       =   7.7857019973666E-03
(PID.TID 0000.0001) %MON trcstat_ptracer03_sd         =   1.0802050352186E-02
(PID.TID 0000.0001) %MON trcstat_ptracer03_del2       =   0.0000000000000E+00
(PID.TID 0000.0001) %MON trcstat_ptracer04_max        =   2.3089513634929E-03
(PID.TID 0000.0001) %MON trcstat_ptracer04_min        =   6.3889418894433E-14
(PID.TID 0000.0001) %MON trcstat_ptracer04_mean       =   3.2781204440569E-04
(PID.TID 0000.0001) %MON trcstat_ptracer04_sd         =   6.0735189237657E-04
(PID.TID 0000.0001) %MON trcstat_ptracer04_del2       =   0.0000000000000E+00
(PID.TID 0000.0001) %MON trcstat_ptracer05_max        =   9.5678141703356E-04
(PID.TID 0000.0001) %MON trcstat_ptracer05_min        =   1.8595010133755E-13
(PID.TID 0000.0001) %MON trcstat_ptracer05_mean       =   6.0749291396711E-04
(PID.TID 0000.0001) %MON trcstat_ptracer05_sd         =   3.9695021757219E-04
(PID.TID 0000.0001) %MON trcstat_ptracer05_del2       =   0.0000000000000E+00
(PID.TID 0000.0001) %MON trcstat_ptracer06_max        =   5.8312978675980E-09
(PID.TID 0000.0001) %MON trcstat_ptracer06_min        =   5.2153293580845E-09
(PID.TID 0000.0001) %MON trcstat_ptracer06_mean       =   5.6960616121938E-09
(PID.TID 0000.0001) %MON trcstat_ptracer06_sd         =   1.6798235444727E-10
(PID.TID 0000.0001) %MON trcstat_ptracer06_del2       =   0.0000000000000E+00
(PID.TID 0000.0001) %MON trcstat_ptracer07_max        =   5.9675929893368E-09
(PID.TID 0000.0001) %MON trcstat_ptracer07_min        =   5.4756627690412E-09
(PID.TID 0000.0001) %MON trcstat_ptracer07_mean       =   5.8644684934123E-09
(PID.TID 0000.0001) %MON trcstat_ptracer07_sd         =   1.3388699107190E-10
(PID.TID 0000.0001) %MON trcstat_ptracer07_del2       =   0.0000000000000E+00
(PID.TID 0000.0001) %MON trcstat_ptracer08_max        =   6.0842148161820E-09
(PID.TID 0000.0001) %MON trcstat_ptracer08_min        =   5.6979332894902E-09
(PID.TID 0000.0001) %MON trcstat_ptracer08_mean       =   6.0066151689343E-09
(PID.TID 0000.0001) %MON trcstat_ptracer08_sd         =   1.0471845256667E-10
(PID.TID 0000.0001) %MON trcstat_ptracer08_del2       =   0.0000000000000E+00
(PID.TID 0000.0001) %MON trcstat_ptracer09_max        =   6.1844552932523E-09
(PID.TID 0000.0001) %MON trcstat_ptracer09_min        =   5.8863561037563E-09
(PID.TID 0000.0001) %MON trcstat_ptracer09_mean       =   6.1267734956078E-09
(PID.TID 0000.0001) %MON trcstat_ptracer09_sd         =   8.0550620880860E-11
(PID.TID 0000.0001) %MON trcstat_ptracer09_del2       =   0.0000000000000E+00
(PID.TID 0000.0001) %MON trcstat_ptracer10_max        =   6.2679884917441E-09
(PID.TID 0000.0001) %MON trcstat_ptracer10_min        =   6.0412721887045E-09
(PID.TID 0000.0001) %MON trcstat_ptracer10_mean       =   6.2256490857242E-09
(PID.TID 0000.0001) %MON trcstat_ptracer10_sd         =   6.1050308925859E-11
(PID.TID 0000.0001) %MON trcstat_ptracer10_del2       =   0.0000000000000E+00
(PID.TID 0000.0001) %MON trcstat_ptracer11_max        =   6.3363853877262E-09
(PID.TID 0000.0001) %MON trcstat_ptracer11_min        =   6.1661299567041E-09
(PID.TID 0000.0001) %MON trcstat_ptracer11_mean       =   6.3056531485812E-09
(PID.TID 0000.0001) %MON trcstat_ptracer11_sd         =   4.5650499985321E-11
(PID.TID 0000.0001) %MON trcstat_ptracer11_del2       =   0.0000000000000E+00
(PID.TID 0000.0001) %MON trcstat_ptracer12_max        =   6.3921108426554E-09
(PID.TID 0000.0001) %MON trcstat_ptracer12_min        =   6.2657261052234E-09
(PID.TID 0000.0001) %MON trcstat_ptracer12_mean       =   6.3700224790660E-09
(PID.TID 0000.0001) %MON trcstat_ptracer12_sd         =   3.3760116996319E-11
(PID.TID 0000.0001) %MON trcstat_ptracer12_del2       =   0.0000000000000E+00
(PID.TID 0000.0001) %MON trcstat_ptracer13_max        =   6.4372906719183E-09
(PID.TID 0000.0001) %MON trcstat_ptracer13_min        =   6.3443834356739E-09
(PID.TID 0000.0001) %MON trcstat_ptracer13_mean       =   6.4215890389806E-09
(PID.TID 0000.0001) %MON trcstat_ptracer13_sd         =   2.4669558975643E-11
(PID.TID 0000.0001) %MON trcstat_ptracer13_del2       =   0.0000000000000E+00
(PID.TID 0000.0001) %MON trcstat_ptracer14_max        =   6.4738454783624E-09
(PID.TID 0000.0001) %MON trcstat_ptracer14_min        =   6.4060957707597E-09
(PID.TID 0000.0001) %MON trcstat_ptracer14_mean       =   6.4627214320595E-09
(PID.TID 0000.0001) %MON trcstat_ptracer14_sd         =   1.7793937475489E-11
(PID.TID 0000.0001) %MON trcstat_ptracer14_del2       =   0.0000000000000E+00
(PID.TID 0000.0001) %MON trcstat_ptracer15_max        =   6.5032557673911E-09
(PID.TID 0000.0001) %MON trcstat_ptracer15_min        =   6.4543911876551E-09
(PID.TID 0000.0001) %MON trcstat_ptracer15_mean       =   6.4953956734710E-09
(PID.TID 0000.0001) %MON trcstat_ptracer15_sd         =   1.2631256899710E-11
(PID.TID 0000.0001) %MON trcstat_ptracer15_del2       =   0.0000000000000E+00
(PID.TID 0000.0001) %MON trcstat_ptracer16_max        =   6.5267729767044E-09
(PID.TID 0000.0001) %MON trcstat_ptracer16_min        =   6.4920041315285E-09
(PID.TID 0000.0001) %MON trcstat_ptracer16_mean       =   6.5212084915981E-09
(PID.TID 0000.0001) %MON trcstat_ptracer16_sd         =   8.8232431539438E-12
(PID.TID 0000.0001) %MON trcstat_ptracer16_del2       =   0.0000000000000E+00
(PID.TID 0000.0001) %MON trcstat_ptracer17_max        =   6.5481929076372E-09
(PID.TID 0000.0001) %MON trcstat_ptracer17_min        =   6.5211441895315E-09
(PID.TID 0000.0001) %MON trcstat_ptracer17_mean       =   6.5414905230630E-09
(PID.TID 0000.0001) %MON trcstat_ptracer17_sd         =   6.0503025491404E-12
(PID.TID 0000.0001) %MON trcstat_ptracer17_del2       =   0.0000000000000E+00
(PID.TID 0000.0001) %MON trcstat_ptracer18_max        =   6.5692719490166E-09
(PID.TID 0000.0001) %MON trcstat_ptracer18_min        =   6.5435780198502E-09
(PID.TID 0000.0001) %MON trcstat_ptracer18_mean       =   6.5573154192008E-09
(PID.TID 0000.0001) %MON trcstat_ptracer18_sd         =   4.0958860630958E-12
(PID.TID 0000.0001) %MON trcstat_ptracer18_del2       =   0.0000000000000E+00
(PID.TID 0000.0001) %MON trcstat_ptracer19_max        =   6.5846691889198E-09
(PID.TID 0000.0001) %MON trcstat_ptracer19_min        =   6.5578658624965E-09
(PID.TID 0000.0001) %MON trcstat_ptracer19_mean       =   6.5695541707043E-09
(PID.TID 0000.0001) %MON trcstat_ptracer19_sd         =   2.8433997694345E-12
(PID.TID 0000.0001) %MON trcstat_ptracer19_del2       =   0.0000000000000E+00
(PID.TID 0000.0001) %MON trcstat_ptracer20_max        =   6.5953655487546E-09
(PID.TID 0000.0001) %MON trcstat_ptracer20_min        =   6.5572907333668E-09
(PID.TID 0000.0001) %MON trcstat_ptracer20_mean       =   6.5789124419309E-09
(PID.TID 0000.0001) %MON trcstat_ptracer20_sd         =   2.3146419636475E-12
(PID.TID 0000.0001) %MON trcstat_ptracer20_del2       =   0.0000000000000E+00
(PID.TID 0000.0001) %MON trcstat_ptracer21_max        =   6.6133814384756E-09
(PID.TID 0000.0001) %MON trcstat_ptracer21_min        =   6.6081511445526E-09
(PID.TID 0000.0001) %MON trcstat_ptracer21_mean       =   6.6126564869083E-09
(PID.TID 0000.0001) %MON trcstat_ptracer21_sd         =   1.4297717904008E-12
(PID.TID 0000.0001) %MON trcstat_ptracer21_del2       =   0.0000000000000E+00
(PID.TID 0000.0001) %MON trcstat_ptracer22_max        =   1.0919352500442E-09
(PID.TID 0000.0001) %MON trcstat_ptracer22_min        =   8.2396277429748E-10
(PID.TID 0000.0001) %MON trcstat_ptracer22_mean       =   8.8218716111361E-10
(PID.TID 0000.0001) %MON trcstat_ptracer22_sd         =   7.2600647989716E-11
(PID.TID 0000.0001) %MON trcstat_ptracer22_del2       =   0.0000000000000E+00
(PID.TID 0000.0001) %MON trcstat_ptracer23_max        =   9.8010585081568E-10
(PID.TID 0000.0001) %MON trcstat_ptracer23_min        =   7.6546701459009E-10
(PID.TID 0000.0001) %MON trcstat_ptracer23_mean       =   8.0993003504897E-10
(PID.TID 0000.0001) %MON trcstat_ptracer23_sd         =   5.8027124206399E-11
(PID.TID 0000.0001) %MON trcstat_ptracer23_del2       =   0.0000000000000E+00
(PID.TID 0000.0001) %MON trcstat_ptracer24_max        =   8.8423025578054E-10
(PID.TID 0000.0001) %MON trcstat_ptracer24_min        =   7.1541472930185E-10
(PID.TID 0000.0001) %MON trcstat_ptracer24_mean       =   7.4892710792912E-10
(PID.TID 0000.0001) %MON trcstat_ptracer24_sd         =   4.5519240071762E-11
(PID.TID 0000.0001) %MON trcstat_ptracer24_del2       =   0.0000000000000E+00
(PID.TID 0000.0001) %MON trcstat_ptracer25_max        =   8.0323898543072E-10
(PID.TID 0000.0001) %MON trcstat_ptracer25_min        =   6.7239306651751E-10
(PID.TID 0000.0001) %MON trcstat_ptracer25_mean       =   6.9738159327031E-10
(PID.TID 0000.0001) %MON trcstat_ptracer25_sd         =   3.5209896076638E-11
(PID.TID 0000.0001) %MON trcstat_ptracer25_del2       =   0.0000000000000E+00
(PID.TID 0000.0001) %MON trcstat_ptracer26_max        =   7.3624123180698E-10
(PID.TID 0000.0001) %MON trcstat_ptracer26_min        =   6.3654190993152E-10
(PID.TID 0000.0001) %MON trcstat_ptracer26_mean       =   6.5494047662106E-10
(PID.TID 0000.0001) %MON trcstat_ptracer26_sd         =   2.6815432996875E-11
(PID.TID 0000.0001) %MON trcstat_ptracer26_del2       =   0.0000000000000E+00
(PID.TID 0000.0001) %MON trcstat_ptracer27_max        =   6.8223039631845E-10
(PID.TID 0000.0001) %MON trcstat_ptracer27_min        =   6.0718702100284E-10
(PID.TID 0000.0001) %MON trcstat_ptracer27_mean       =   6.2060326548063E-10
(PID.TID 0000.0001) %MON trcstat_ptracer27_sd         =   2.0186240378962E-11
(PID.TID 0000.0001) %MON trcstat_ptracer27_del2       =   0.0000000000000E+00
(PID.TID 0000.0001) %MON trcstat_ptracer28_max        =   6.3911975186266E-10
(PID.TID 0000.0001) %MON trcstat_ptracer28_min        =   5.8327051942869E-10
(PID.TID 0000.0001) %MON trcstat_ptracer28_mean       =   5.9296864359661E-10
(PID.TID 0000.0001) %MON trcstat_ptracer28_sd         =   1.5037806333948E-11
(PID.TID 0000.0001) %MON trcstat_ptracer28_del2       =   0.0000000000000E+00
(PID.TID 0000.0001) %MON trcstat_ptracer29_max        =   6.0499605834046E-10
(PID.TID 0000.0001) %MON trcstat_ptracer29_min        =   5.6388003828787E-10
(PID.TID 0000.0001) %MON trcstat_ptracer29_mean       =   5.7083040112100E-10
(PID.TID 0000.0001) %MON trcstat_ptracer29_sd         =   1.1088161676643E-11
(PID.TID 0000.0001) %MON trcstat_ptracer29_del2       =   0.0000000000000E+00
(PID.TID 0000.0001) %MON trcstat_ptracer30_max        =   5.7814490063459E-10
(PID.TID 0000.0001) %MON trcstat_ptracer30_min        =   5.4823779706836E-10
(PID.TID 0000.0001) %MON trcstat_ptracer30_mean       =   5.5317173058786E-10
(PID.TID 0000.0001) %MON trcstat_ptracer30_sd         =   8.0839484087585E-12
(PID.TID 0000.0001) %MON trcstat_ptracer30_del2       =   0.0000000000000E+00
(PID.TID 0000.0001) %MON trcstat_ptracer31_max        =   5.5712243552849E-10
(PID.TID 0000.0001) %MON trcstat_ptracer31_min        =   5.3568663437473E-10
(PID.TID 0000.0001) %MON trcstat_ptracer31_mean       =   5.3914845595443E-10
(PID.TID 0000.0001) %MON trcstat_ptracer31_sd         =   5.8129214053213E-12
(PID.TID 0000.0001) %MON trcstat_ptracer31_del2       =   0.0000000000000E+00
(PID.TID 0000.0001) %MON trcstat_ptracer32_max        =   5.4081079970628E-10
(PID.TID 0000.0001) %MON trcstat_ptracer32_min        =   5.2567517560994E-10
(PID.TID 0000.0001) %MON trcstat_ptracer32_mean       =   5.2806641406823E-10
(PID.TID 0000.0001) %MON trcstat_ptracer32_sd         =   4.1036680605614E-12
(PID.TID 0000.0001) %MON trcstat_ptracer32_del2       =   0.0000000000000E+00
(PID.TID 0000.0001) %MON trcstat_ptracer33_max        =   5.2818836917522E-10
(PID.TID 0000.0001) %MON trcstat_ptracer33_min        =   5.1774338743016E-10
(PID.TID 0000.0001) %MON trcstat_ptracer33_mean       =   5.1935888858641E-10
(PID.TID 0000.0001) %MON trcstat_ptracer33_sd         =   2.8226073906966E-12
(PID.TID 0000.0001) %MON trcstat_ptracer33_del2       =   0.0000000000000E+00
(PID.TID 0000.0001) %MON trcstat_ptracer34_max        =   5.1847163198323E-10
(PID.TID 0000.0001) %MON trcstat_ptracer34_min        =   5.1150918550168E-10
(PID.TID 0000.0001) %MON trcstat_ptracer34_mean       =   5.1256491420394E-10
(PID.TID 0000.0001) %MON trcstat_ptracer34_sd         =   1.8673178976530E-12
(PID.TID 0000.0001) %MON trcstat_ptracer34_del2       =   0.0000000000000E+00
(PID.TID 0000.0001) %MON trcstat_ptracer35_max        =   5.1105024341675E-10
(PID.TID 0000.0001) %MON trcstat_ptracer35_min        =   5.0665640023512E-10
(PID.TID 0000.0001) %MON trcstat_ptracer35_mean       =   5.0731054019975E-10
(PID.TID 0000.0001) %MON trcstat_ptracer35_sd         =   1.1622743975629E-12
(PID.TID 0000.0001) %MON trcstat_ptracer35_del2       =   0.0000000000000E+00
(PID.TID 0000.0001) %MON trcstat_ptracer36_max        =   5.0544262519405E-10
(PID.TID 0000.0001) %MON trcstat_ptracer36_min        =   5.0121558274875E-10
(PID.TID 0000.0001) %MON trcstat_ptracer36_mean       =   5.0329279884335E-10
(PID.TID 0000.0001) %MON trcstat_ptracer36_sd         =   6.6081688895495E-13
(PID.TID 0000.0001) %MON trcstat_ptracer36_del2       =   0.0000000000000E+00
(PID.TID 0000.0001) %MON trcstat_ptracer37_max        =   4.9912310547572E-10
(PID.TID 0000.0001) %MON trcstat_ptracer37_min        =   4.9872836632910E-10
(PID.TID 0000.0001) %MON trcstat_ptracer37_mean       =   4.9906839215230E-10
(PID.TID 0000.0001) %MON trcstat_ptracer37_sd         =   1.0790730018690E-13
(PID.TID 0000.0001) %MON trcstat_ptracer37_del2       =   0.0000000000000E+00
(PID.TID 0000.0001) %MON trcstat_ptracer38_max        =   4.6437818060290E-14
(PID.TID 0000.0001) %MON trcstat_ptracer38_min        =   2.9850464046996E-14
(PID.TID 0000.0001) %MON trcstat_ptracer38_mean       =   3.9078881420277E-14
(PID.TID 0000.0001) %MON trcstat_ptracer38_sd         =   5.9644079780723E-15
(PID.TID 0000.0001) %MON trcstat_ptracer38_del2       =   0.0000000000000E+00
(PID.TID 0000.0001) %MON trcstat_ptracer39_max        =   4.3840633006026E-14
(PID.TID 0000.0001) %MON trcstat_ptracer39_min        =   2.9850430209903E-14
(PID.TID 0000.0001) %MON trcstat_ptracer39_mean       =   3.7549040899636E-14
(PID.TID 0000.0001) %MON trcstat_ptracer39_sd         =   4.9858978601294E-15
(PID.TID 0000.0001) %MON trcstat_ptracer39_del2       =   0.0000000000000E+00
(PID.TID 0000.0001) %MON trcstat_ptracer40_max        =   4.1562581052449E-14
(PID.TID 0000.0001) %MON trcstat_ptracer40_min        =   2.9850407278652E-14
(PID.TID 0000.0001) %MON trcstat_ptracer40_mean       =   3.6240182181573E-14
(PID.TID 0000.0001) %MON trcstat_ptracer40_sd         =   4.1456204637225E-15
(PID.TID 0000.0001) %MON trcstat_ptracer40_del2       =   0.0000000000000E+00
(PID.TID 0000.0001) %MON trcstat_ptracer41_max        =   3.9596835852834E-14
(PID.TID 0000.0001) %MON trcstat_ptracer41_min        =   2.9850392031585E-14
(PID.TID 0000.0001) %MON trcstat_ptracer41_mean       =   3.5129120027500E-14
(PID.TID 0000.0001) %MON trcstat_ptracer41_sd         =   3.4301752174994E-15
(PID.TID 0000.0001) %MON trcstat_ptracer41_del2       =   0.0000000000000E+00
(PID.TID 0000.0001) %MON trcstat_ptracer42_max        =   3.7907084182848E-14
(PID.TID 0000.0001) %MON trcstat_ptracer42_min        =   2.9850382127929E-14
(PID.TID 0000.0001) %MON trcstat_ptracer42_mean       =   3.4189428798757E-14
(PID.TID 0000.0001) %MON trcstat_ptracer42_sd         =   2.8235109297436E-15
(PID.TID 0000.0001) %MON trcstat_ptracer42_del2       =   0.0000000000000E+00
(PID.TID 0000.0001) %MON trcstat_ptracer43_max        =   3.6468415923611E-14
(PID.TID 0000.0001) %MON trcstat_ptracer43_min        =   2.9850375919161E-14
(PID.TID 0000.0001) %MON trcstat_ptracer43_mean       =   3.3398485990522E-14
(PID.TID 0000.0001) %MON trcstat_ptracer43_sd         =   2.3117729983907E-15
(PID.TID 0000.0001) %MON trcstat_ptracer43_del2       =   0.0000000000000E+00
(PID.TID 0000.0001) %MON trcstat_ptracer44_max        =   3.5252493605954E-14
(PID.TID 0000.0001) %MON trcstat_ptracer44_min        =   2.9850372232085E-14
(PID.TID 0000.0001) %MON trcstat_ptracer44_mean       =   3.2736319240252E-14
(PID.TID 0000.0001) %MON trcstat_ptracer44_sd         =   1.8825804747808E-15
(PID.TID 0000.0001) %MON trcstat_ptracer44_del2       =   0.0000000000000E+00
(PID.TID 0000.0001) %MON trcstat_ptracer45_max        =   3.4232286034047E-14
(PID.TID 0000.0001) %MON trcstat_ptracer45_min        =   2.9850370219719E-14
(PID.TID 0000.0001) %MON trcstat_ptracer45_mean       =   3.2184726664657E-14
(PID.TID 0000.0001) %MON trcstat_ptracer45_sd         =   1.5245075681245E-15
(PID.TID 0000.0001) %MON trcstat_ptracer45_del2       =   0.0000000000000E+00
(PID.TID 0000.0001) %MON trcstat_ptracer46_max        =   3.3381839101740E-14
(PID.TID 0000.0001) %MON trcstat_ptracer46_min        =   2.9850369267252E-14
(PID.TID 0000.0001) %MON trcstat_ptracer46_mean       =   3.1727470012561E-14
(PID.TID 0000.0001) %MON trcstat_ptracer46_sd         =   1.2272508295800E-15
(PID.TID 0000.0001) %MON trcstat_ptracer46_del2       =   0.0000000000000E+00
(PID.TID 0000.0001) %MON trcstat_ptracer47_max        =   3.2678698161726E-14
(PID.TID 0000.0001) %MON trcstat_ptracer47_min        =   2.9850368925903E-14
(PID.TID 0000.0001) %MON trcstat_ptracer47_mean       =   3.1350300396414E-14
(PID.TID 0000.0001) %MON trcstat_ptracer47_sd         =   9.8170333027257E-16
(PID.TID 0000.0001) %MON trcstat_ptracer47_del2       =   0.0000000000000E+00
(PID.TID 0000.0001) %MON trcstat_ptracer48_max        =   3.2100757550182E-14
(PID.TID 0000.0001) %MON trcstat_ptracer48_min        =   2.9850368867607E-14
(PID.TID 0000.0001) %MON trcstat_ptracer48_mean       =   3.1040838191388E-14
(PID.TID 0000.0001) %MON trcstat_ptracer48_sd         =   7.7990620033659E-16
(PID.TID 0000.0001) %MON trcstat_ptracer48_del2       =   0.0000000000000E+00
(PID.TID 0000.0001) %MON trcstat_ptracer49_max        =   3.1627662569939E-14
(PID.TID 0000.0001) %MON trcstat_ptracer49_min        =   2.9850368854871E-14
(PID.TID 0000.0001) %MON trcstat_ptracer49_mean       =   3.0788408816407E-14
(PID.TID 0000.0001) %MON trcstat_ptracer49_sd         =   6.1497466793891E-16
(PID.TID 0000.0001) %MON trcstat_ptracer49_del2       =   0.0000000000000E+00
(PID.TID 0000.0001) %MON trcstat_ptracer50_max        =   3.1243420505610E-14
(PID.TID 0000.0001) %MON trcstat_ptracer50_min        =   2.9850368721235E-14
(PID.TID 0000.0001) %MON trcstat_ptracer50_mean       =   3.0583834029189E-14
(PID.TID 0000.0001) %MON trcstat_ptracer50_sd         =   4.8097427252717E-16
(PID.TID 0000.0001) %MON trcstat_ptracer50_del2       =   0.0000000000000E+00
(PID.TID 0000.0001) %MON trcstat_ptracer51_max        =   3.0933327785163E-14
(PID.TID 0000.0001) %MON trcstat_ptracer51_min        =   2.9850368358697E-14
(PID.TID 0000.0001) %MON trcstat_ptracer51_mean       =   3.0419236445100E-14
(PID.TID 0000.0001) %MON trcstat_ptracer51_sd         =   3.7281160145772E-16
(PID.TID 0000.0001) %MON trcstat_ptracer51_del2       =   0.0000000000000E+00
(PID.TID 0000.0001) %MON trcstat_ptracer52_max        =   3.0685091287667E-14
(PID.TID 0000.0001) %MON trcstat_ptracer52_min        =   2.9850367709246E-14
(PID.TID 0000.0001) %MON trcstat_ptracer52_mean       =   3.0287858766789E-14
(PID.TID 0000.0001) %MON trcstat_ptracer52_sd         =   2.8613897233919E-16
(PID.TID 0000.0001) %MON trcstat_ptracer52_del2       =   0.0000000000000E+00
(PID.TID 0000.0001) %MON trcstat_ptracer53_max        =   2.9947386649987E-14
(PID.TID 0000.0001) %MON trcstat_ptracer53_min        =   2.9923702300935E-14
(PID.TID 0000.0001) %MON trcstat_ptracer53_mean       =   2.9944103850546E-14
(PID.TID 0000.0001) %MON trcstat_ptracer53_sd         =   6.4744380807243E-18
(PID.TID 0000.0001) %MON trcstat_ptracer53_del2       =   0.0000000000000E+00
(PID.TID 0000.0001) %MON trcstat_ptracer54_max        =   1.8259728199594E-09
(PID.TID 0000.0001) %MON trcstat_ptracer54_min        =   9.9501037695900E-10
(PID.TID 0000.0001) %MON trcstat_ptracer54_mean       =   1.0224519006924E-09
(PID.TID 0000.0001) %MON trcstat_ptracer54_sd         =   1.4566475421522E-10
(PID.TID 0000.0001) %MON trcstat_ptracer54_del2       =   0.0000000000000E+00
(PID.TID 0000.0001) %MON trcstat_ptracer55_max        =   1.8676775474585E-09
(PID.TID 0000.0001) %MON trcstat_ptracer55_min        =   9.9501037695900E-10
(PID.TID 0000.0001) %MON trcstat_ptracer55_mean       =   1.0226857102747E-09
(PID.TID 0000.0001) %MON trcstat_ptracer55_sd         =   1.4721372318207E-10
(PID.TID 0000.0001) %MON trcstat_ptracer55_del2       =   0.0000000000000E+00
(PID.TID 0000.0001) %MON trcstat_ptracer56_max        =   1.6872133723647E-09
(PID.TID 0000.0001) %MON trcstat_ptracer56_min        =   9.9501037695900E-10
(PID.TID 0000.0001) %MON trcstat_ptracer56_mean       =   1.0178306452687E-09
(PID.TID 0000.0001) %MON trcstat_ptracer56_sd         =   1.2112364754904E-10
(PID.TID 0000.0001) %MON trcstat_ptracer56_del2       =   0.0000000000000E+00
(PID.TID 0000.0001) %MON trcstat_ptracer57_max        =   1.6557670047893E-09
(PID.TID 0000.0001) %MON trcstat_ptracer57_min        =   9.9501037695900E-10
(PID.TID 0000.0001) %MON trcstat_ptracer57_mean       =   1.0165070803257E-09
(PID.TID 0000.0001) %MON trcstat_ptracer57_sd         =   1.1415752415984E-10
(PID.TID 0000.0001) %MON trcstat_ptracer57_del2       =   0.0000000000000E+00
(PID.TID 0000.0001) %MON trcstat_ptracer58_max        =   1.5064901375319E-09
(PID.TID 0000.0001) %MON trcstat_ptracer58_min        =   9.9501037695900E-10
(PID.TID 0000.0001) %MON trcstat_ptracer58_mean       =   1.0119257147882E-09
(PID.TID 0000.0001) %MON trcstat_ptracer58_sd         =   8.9759435103324E-11
(PID.TID 0000.0001) %MON trcstat_ptracer58_del2       =   0.0000000000000E+00
(PID.TID 0000.0001) %MON trcstat_ptracer59_max        =   1.3880372848426E-09
(PID.TID 0000.0001) %MON trcstat_ptracer59_min        =   9.9501037695900E-10
(PID.TID 0000.0001) %MON trcstat_ptracer59_mean       =   1.0082336870053E-09
(PID.TID 0000.0001) %MON trcstat_ptracer59_sd         =   7.0120332941258E-11
(PID.TID 0000.0001) %MON trcstat_ptracer59_del2       =   0.0000000000000E+00
(PID.TID 0000.0001) %MON trcstat_ptracer60_max        =   1.2940566261513E-09
(PID.TID 0000.0001) %MON trcstat_ptracer60_min        =   9.9501037695900E-10
(PID.TID 0000.0001) %MON trcstat_ptracer60_mean       =   1.0050960736894E-09
(PID.TID 0000.0001) %MON trcstat_ptracer60_sd         =   5.3468645362392E-11
(PID.TID 0000.0001) %MON trcstat_ptracer60_del2       =   0.0000000000000E+00
(PID.TID 0000.0001) %MON trcstat_ptracer61_max        =   1.2205392714351E-09
(PID.TID 0000.0001) %MON trcstat_ptracer61_min        =   9.9501037695900E-10
(PID.TID 0000.0001) %MON trcstat_ptracer61_mean       =   1.0026294360250E-09
(PID.TID 0000.0001) %MON trcstat_ptracer61_sd         =   4.0376532737589E-11
(PID.TID 0000.0001) %MON trcstat_ptracer61_del2       =   0.0000000000000E+00
(PID.TID 0000.0001) %MON trcstat_ptracer62_max        =   1.1633192372524E-09
(PID.TID 0000.0001) %MON trcstat_ptracer62_min        =   9.9501037695900E-10
(PID.TID 0000.0001) %MON trcstat_ptracer62_mean       =   1.0007034948380E-09
(PID.TID 0000.0001) %MON trcstat_ptracer62_sd         =   3.0151096801030E-11
(PID.TID 0000.0001) %MON trcstat_ptracer62_del2       =   0.0000000000000E+00
(PID.TID 0000.0001) %MON trcstat_ptracer63_max        =   1.1192235850792E-09
(PID.TID 0000.0001) %MON trcstat_ptracer63_min        =   9.9501037695900E-10
(PID.TID 0000.0001) %MON trcstat_ptracer63_mean       =   9.9924129650466E-10
(PID.TID 0000.0001) %MON trcstat_ptracer63_sd         =   2.2380144046763E-11
(PID.TID 0000.0001) %MON trcstat_ptracer63_del2       =   0.0000000000000E+00
(PID.TID 0000.0001) %MON trcstat_ptracer64_max        =   1.0848802230226E-09
(PID.TID 0000.0001) %MON trcstat_ptracer64_min        =   9.9501037695900E-10
(PID.TID 0000.0001) %MON trcstat_ptracer64_mean       =   9.9807258583930E-10
(PID.TID 0000.0001) %MON trcstat_ptracer64_sd         =   1.6165684128199E-11
(PID.TID 0000.0001) %MON trcstat_ptracer64_del2       =   0.0000000000000E+00
(PID.TID 0000.0001) %MON trcstat_ptracer65_max        =   1.0584586027812E-09
(PID.TID 0000.0001) %MON trcstat_ptracer65_min        =   9.9501037695900E-10
(PID.TID 0000.0001) %MON trcstat_ptracer65_mean       =   9.9717295821159E-10
(PID.TID 0000.0001) %MON trcstat_ptracer65_sd         =   1.1373616230953E-11
(PID.TID 0000.0001) %MON trcstat_ptracer65_del2       =   0.0000000000000E+00
(PID.TID 0000.0001) %MON trcstat_ptracer66_max        =   1.0382364504131E-09
(PID.TID 0000.0001) %MON trcstat_ptracer66_min        =   9.9501037695900E-10
(PID.TID 0000.0001) %MON trcstat_ptracer66_mean       =   9.9648415584584E-10
(PID.TID 0000.0001) %MON trcstat_ptracer66_sd         =   7.6943038334307E-12
(PID.TID 0000.0001) %MON trcstat_ptracer66_del2       =   0.0000000000000E+00
(PID.TID 0000.0001) %MON trcstat_ptracer67_max        =   1.0228681141595E-09
(PID.TID 0000.0001) %MON trcstat_ptracer67_min        =   9.9501037695900E-10
(PID.TID 0000.0001) %MON trcstat_ptracer67_mean       =   9.9596056496611E-10
(PID.TID 0000.0001) %MON trcstat_ptracer67_sd         =   4.8866795209050E-12
(PID.TID 0000.0001) %MON trcstat_ptracer67_del2       =   0.0000000000000E+00
(PID.TID 0000.0001) %MON trcstat_ptracer68_max        =   1.0113031925149E-09
(PID.TID 0000.0001) %MON trcstat_ptracer68_min        =   9.9501037695900E-10
(PID.TID 0000.0001) %MON trcstat_ptracer68_mean       =   9.9556652456543E-10
(PID.TID 0000.0001) %MON trcstat_ptracer68_sd         =   2.7699541490470E-12
(PID.TID 0000.0001) %MON trcstat_ptracer68_del2       =   0.0000000000000E+00
(PID.TID 0000.0001) %MON trcstat_ptracer69_max        =   1.2956844984303E-09
(PID.TID 0000.0001) %MON trcstat_ptracer69_min        =   1.2927613749784E-09
(PID.TID 0000.0001) %MON trcstat_ptracer69_mean       =   1.2950667123742E-09
(PID.TID 0000.0001) %MON trcstat_ptracer69_sd         =   7.9216247725412E-13
(PID.TID 0000.0001) %MON trcstat_ptracer69_del2       =   0.0000000000000E+00
(PID.TID 0000.0001) %MON trcstat_ptracer70_max        =   2.0246065003866E-10
(PID.TID 0000.0001) %MON trcstat_ptracer70_min        =   1.8532842969163E-10
(PID.TID 0000.0001) %MON trcstat_ptracer70_mean       =   2.0168442571056E-10
(PID.TID 0000.0001) %MON trcstat_ptracer70_sd         =   9.1333901843529E-13
(PID.TID 0000.0001) %MON trcstat_ptracer70_del2       =   0.0000000000000E+00
(PID.TID 0000.0001) %MON trcstat_ptracer71_max        =   2.7506174786011E-11
(PID.TID 0000.0001) %MON trcstat_ptracer71_min        =   2.5303270606078E-11
(PID.TID 0000.0001) %MON trcstat_ptracer71_mean       =   2.5698611147659E-11
(PID.TID 0000.0001) %MON trcstat_ptracer71_sd         =   5.9681410463565E-13
(PID.TID 0000.0001) %MON trcstat_ptracer71_del2       =   0.0000000000000E+00
(PID.TID 0000.0001) %MON trcstat_ptracer72_max        =   2.7128230503026E-01
(PID.TID 0000.0001) %MON trcstat_ptracer72_min        =   1.6335373580935E-11
(PID.TID 0000.0001) %MON trcstat_ptracer72_mean       =   3.2909450781448E-02
(PID.TID 0000.0001) %MON trcstat_ptracer72_sd         =   8.2895350002552E-02
(PID.TID 0000.0001) %MON trcstat_ptracer72_del2       =   0.0000000000000E+00
(PID.TID 0000.0001) %MON trcstat_ptracer73_max        =   3.0312840638091E-02
(PID.TID 0000.0001) %MON trcstat_ptracer73_min        =   4.5518083917839E-12
(PID.TID 0000.0001) %MON trcstat_ptracer73_mean       =   1.4911604199239E-02
(PID.TID 0000.0001) %MON trcstat_ptracer73_sd         =   1.1098222363892E-02
(PID.TID 0000.0001) %MON trcstat_ptracer73_del2       =   0.0000000000000E+00
(PID.TID 0000.0001) %MON trcstat_ptracer74_max        =   1.6955143089374E-05
(PID.TID 0000.0001) %MON trcstat_ptracer74_min        =   9.2312411517102E-16
(PID.TID 0000.0001) %MON trcstat_ptracer74_mean       =   2.0568406725561E-06
(PID.TID 0000.0001) %MON trcstat_ptracer74_sd         =   5.1809593692257E-06
(PID.TID 0000.0001) %MON trcstat_ptracer74_del2       =   0.0000000000000E+00
(PID.TID 0000.0001) %MON trcstat_ptracer75_max        =   1.8979393372225E-06
(PID.TID 0000.0001) %MON trcstat_ptracer75_min        =   2.8490253806106E-16
(PID.TID 0000.0001) %MON trcstat_ptracer75_mean       =   9.3370607446663E-07
(PID.TID 0000.0001) %MON trcstat_ptracer75_sd         =   6.9486431187810E-07
(PID.TID 0000.0001) %MON trcstat_ptracer75_del2       =   0.0000000000000E+00
(PID.TID 0000.0001) // =======================================================
(PID.TID 0000.0001) // End MONITOR ptracers field statistics
(PID.TID 0000.0001) // =======================================================
(PID.TID 0000.0001) // =======================================================
(PID.TID 0000.0001) // Begin MONITOR dynamic field statistics
(PID.TID 0000.0001) // =======================================================
(PID.TID 0000.0001) %MON time_tsnumber                =                     3
(PID.TID 0000.0001) %MON time_secondsf                =   3.2400000000000E+04
(PID.TID 0000.0001) %MON dynstat_eta_max              =   0.0000000000000E+00
(PID.TID 0000.0001) %MON dynstat_eta_min              =   0.0000000000000E+00
(PID.TID 0000.0001) %MON dynstat_eta_mean             =   0.0000000000000E+00
(PID.TID 0000.0001) %MON dynstat_eta_sd               =   0.0000000000000E+00
(PID.TID 0000.0001) %MON dynstat_eta_del2             =   0.0000000000000E+00
(PID.TID 0000.0001) %MON dynstat_uvel_max             =   0.0000000000000E+00
(PID.TID 0000.0001) %MON dynstat_uvel_min             =   0.0000000000000E+00
(PID.TID 0000.0001) %MON dynstat_uvel_mean            =   0.0000000000000E+00
(PID.TID 0000.0001) %MON dynstat_uvel_sd              =   0.0000000000000E+00
(PID.TID 0000.0001) %MON dynstat_uvel_del2            =   0.0000000000000E+00
(PID.TID 0000.0001) %MON dynstat_vvel_max             =   0.0000000000000E+00
(PID.TID 0000.0001) %MON dynstat_vvel_min             =   0.0000000000000E+00
(PID.TID 0000.0001) %MON dynstat_vvel_mean            =   0.0000000000000E+00
(PID.TID 0000.0001) %MON dynstat_vvel_sd              =   0.0000000000000E+00
(PID.TID 0000.0001) %MON dynstat_vvel_del2            =   0.0000000000000E+00
(PID.TID 0000.0001) %MON dynstat_wvel_max             =   0.0000000000000E+00
(PID.TID 0000.0001) %MON dynstat_wvel_min             =   0.0000000000000E+00
(PID.TID 0000.0001) %MON dynstat_wvel_mean            =   0.0000000000000E+00
(PID.TID 0000.0001) %MON dynstat_wvel_sd              =   0.0000000000000E+00
(PID.TID 0000.0001) %MON dynstat_wvel_del2            =   0.0000000000000E+00
(PID.TID 0000.0001) %MON dynstat_theta_max            =   6.4982507919171E+00
(PID.TID 0000.0001) %MON dynstat_theta_min            =  -9.3887414449177E-01
(PID.TID 0000.0001) %MON dynstat_theta_mean           =   1.5610609119765E-01
(PID.TID 0000.0001) %MON dynstat_theta_sd             =   2.0855626582259E+00
(PID.TID 0000.0001) %MON dynstat_theta_del2           =   0.0000000000000E+00
(PID.TID 0000.0001) %MON dynstat_salt_max             =   3.5000000000000E+01
(PID.TID 0000.0001) %MON dynstat_salt_min             =   3.5000000000000E+01
(PID.TID 0000.0001) %MON dynstat_salt_mean            =   3.5000000000000E+01
(PID.TID 0000.0001) %MON dynstat_salt_sd              =   7.1054273576010E-15
(PID.TID 0000.0001) %MON dynstat_salt_del2            =   0.0000000000000E+00
(PID.TID 0000.0001) %MON dynstat_sst_max              =   6.4982507919171E+00
(PID.TID 0000.0001) %MON dynstat_sst_min              =   6.4982507919171E+00
(PID.TID 0000.0001) %MON dynstat_sst_mean             =   6.4982507919171E+00
(PID.TID 0000.0001) %MON dynstat_sst_sd               =   0.0000000000000E+00
(PID.TID 0000.0001) %MON dynstat_sst_del2             =   0.0000000000000E+00
(PID.TID 0000.0001) %MON dynstat_sss_max              =   3.5000000000000E+01
(PID.TID 0000.0001) %MON dynstat_sss_min              =   3.5000000000000E+01
(PID.TID 0000.0001) %MON dynstat_sss_mean             =   3.5000000000000E+01
(PID.TID 0000.0001) %MON dynstat_sss_sd               =   0.0000000000000E+00
(PID.TID 0000.0001) %MON dynstat_sss_del2             =   0.0000000000000E+00
(PID.TID 0000.0001) %MON forcing_qnet_max             =   0.0000000000000E+00
(PID.TID 0000.0001) %MON forcing_qnet_min             =   0.0000000000000E+00
(PID.TID 0000.0001) %MON forcing_qnet_mean            =   0.0000000000000E+00
(PID.TID 0000.0001) %MON forcing_qnet_sd              =   0.0000000000000E+00
(PID.TID 0000.0001) %MON forcing_qnet_del2            =   0.0000000000000E+00
(PID.TID 0000.0001) %MON forcing_qsw_max              =   0.0000000000000E+00
(PID.TID 0000.0001) %MON forcing_qsw_min              =   0.0000000000000E+00
(PID.TID 0000.0001) %MON forcing_qsw_mean             =   0.0000000000000E+00
(PID.TID 0000.0001) %MON forcing_qsw_sd               =   0.0000000000000E+00
(PID.TID 0000.0001) %MON forcing_qsw_del2             =   0.0000000000000E+00
(PID.TID 0000.0001) %MON forcing_empmr_max            =   0.0000000000000E+00
(PID.TID 0000.0001) %MON forcing_empmr_min            =   0.0000000000000E+00
(PID.TID 0000.0001) %MON forcing_empmr_mean           =   0.0000000000000E+00
(PID.TID 0000.0001) %MON forcing_empmr_sd             =   0.0000000000000E+00
(PID.TID 0000.0001) %MON forcing_empmr_del2           =   0.0000000000000E+00
(PID.TID 0000.0001) %MON forcing_fu_max               =   2.2715694695711E+00
(PID.TID 0000.0001) %MON forcing_fu_min               =   2.2715694695711E+00
(PID.TID 0000.0001) %MON forcing_fu_mean              =   2.2715694695711E+00
(PID.TID 0000.0001) %MON forcing_fu_sd                =   0.0000000000000E+00
(PID.TID 0000.0001) %MON forcing_fu_del2              =   0.0000000000000E+00
(PID.TID 0000.0001) %MON forcing_fv_max               =   1.1480025862654E+00
(PID.TID 0000.0001) %MON forcing_fv_min               =   1.1480025862654E+00
(PID.TID 0000.0001) %MON forcing_fv_mean              =   1.1480025862654E+00
(PID.TID 0000.0001) %MON forcing_fv_sd                =   0.0000000000000E+00
(PID.TID 0000.0001) %MON forcing_fv_del2              =   0.0000000000000E+00
(PID.TID 0000.0001) %MON advcfl_uvel_max              =   0.0000000000000E+00
(PID.TID 0000.0001) %MON advcfl_vvel_max              =   0.0000000000000E+00
(PID.TID 0000.0001) %MON advcfl_wvel_max              =   0.0000000000000E+00
(PID.TID 0000.0001) %MON advcfl_W_hf_max              =   0.0000000000000E+00
(PID.TID 0000.0001) %MON pe_b_mean                    =   0.0000000000000E+00
(PID.TID 0000.0001) %MON ke_max                       =   0.0000000000000E+00
(PID.TID 0000.0001) %MON ke_mean                      =   0.0000000000000E+00
(PID.TID 0000.0001) %MON ke_vol                       =   4.1199767883485E+13
(PID.TID 0000.0001) %MON vort_r_min                   =   0.0000000000000E+00
(PID.TID 0000.0001) %MON vort_r_max                   =   0.0000000000000E+00
(PID.TID 0000.0001) %MON vort_a_mean                  =  -4.5067801836625E-05
(PID.TID 0000.0001) %MON vort_a_sd                    =  -4.1359030627651E-25
(PID.TID 0000.0001) %MON vort_p_mean                  =  -4.5067801836625E-05
(PID.TID 0000.0001) %MON vort_p_sd                    =   0.0000000000000E+00
(PID.TID 0000.0001) %MON surfExpan_theta_mean         =   0.0000000000000E+00
(PID.TID 0000.0001) %MON surfExpan_salt_mean          =   0.0000000000000E+00
(PID.TID 0000.0001) // =======================================================
(PID.TID 0000.0001) // End MONITOR dynamic field statistics
(PID.TID 0000.0001) // =======================================================
(PID.TID 0000.0001) // =======================================================
(PID.TID 0000.0001) // Begin MONITOR ptracer field statistics
(PID.TID 0000.0001) // =======================================================
(PID.TID 0000.0001) %MON trcstat_ptracer01_max        =   2.1623998930013E+03
(PID.TID 0000.0001) %MON trcstat_ptracer01_min        =   2.0947204476820E+03
(PID.TID 0000.0001) %MON trcstat_ptracer01_mean       =   2.1557233177756E+03
(PID.TID 0000.0001) %MON trcstat_ptracer01_sd         =   1.1485329988762E+01
(PID.TID 0000.0001) %MON trcstat_ptracer01_del2       =   0.0000000000000E+00
(PID.TID 0000.0001) %MON trcstat_ptracer02_max        =   1.5341521852117E+01
(PID.TID 0000.0001) %MON trcstat_ptracer02_min        =   1.1894626171532E+01
(PID.TID 0000.0001) %MON trcstat_ptracer02_mean       =   1.4471853885669E+01
(PID.TID 0000.0001) %MON trcstat_ptracer02_sd         =   9.1945400571038E-01
(PID.TID 0000.0001) %MON trcstat_ptracer02_del2       =   0.0000000000000E+00
(PID.TID 0000.0001) %MON trcstat_ptracer03_max        =   3.8105099386644E-02
(PID.TID 0000.0001) %MON trcstat_ptracer03_min        =   1.7835429544024E-12
(PID.TID 0000.0001) %MON trcstat_ptracer03_mean       =   7.7701303233507E-03
(PID.TID 0000.0001) %MON trcstat_ptracer03_sd         =   1.0820444247740E-02
(PID.TID 0000.0001) %MON trcstat_ptracer03_del2       =   0.0000000000000E+00
(PID.TID 0000.0001) %MON trcstat_ptracer04_max        =   2.3654547456344E-03
(PID.TID 0000.0001) %MON trcstat_ptracer04_min        =   1.2602210021191E-13
(PID.TID 0000.0001) %MON trcstat_ptracer04_mean       =   3.2472475478283E-04
(PID.TID 0000.0001) %MON trcstat_ptracer04_sd         =   6.5143913328916E-04
(PID.TID 0000.0001) %MON trcstat_ptracer04_del2       =   0.0000000000000E+00
(PID.TID 0000.0001) %MON trcstat_ptracer05_max        =   9.7876020103995E-04
(PID.TID 0000.0001) %MON trcstat_ptracer05_min        =   3.7983471349786E-13
(PID.TID 0000.0001) %MON trcstat_ptracer05_mean       =   6.2131414029467E-04
(PID.TID 0000.0001) %MON trcstat_ptracer05_sd         =   4.0610692897005E-04
(PID.TID 0000.0001) %MON trcstat_ptracer05_del2       =   0.0000000000000E+00
(PID.TID 0000.0001) %MON trcstat_ptracer06_max        =   5.5254134307927E-09
(PID.TID 0000.0001) %MON trcstat_ptracer06_min        =   4.8598924113242E-09
(PID.TID 0000.0001) %MON trcstat_ptracer06_mean       =   5.3619619661529E-09
(PID.TID 0000.0001) %MON trcstat_ptracer06_sd         =   1.8273273609375E-10
(PID.TID 0000.0001) %MON trcstat_ptracer06_del2       =   0.0000000000000E+00
(PID.TID 0000.0001) %MON trcstat_ptracer07_max        =   5.7074283495700E-09
(PID.TID 0000.0001) %MON trcstat_ptracer07_min        =   5.1407019038313E-09
(PID.TID 0000.0001) %MON trcstat_ptracer07_mean       =   5.5762361707122E-09
(PID.TID 0000.0001) %MON trcstat_ptracer07_sd         =   1.5453201495136E-10
(PID.TID 0000.0001) %MON trcstat_ptracer07_del2       =   0.0000000000000E+00
(PID.TID 0000.0001) %MON trcstat_ptracer08_max        =   5.8648586908635E-09
(PID.TID 0000.0001) %MON trcstat_ptracer08_min        =   5.3967093272048E-09
(PID.TID 0000.0001) %MON trcstat_ptracer08_mean       =   5.7620342432020E-09
(PID.TID 0000.0001) %MON trcstat_ptracer08_sd         =   1.2679190314421E-10
(PID.TID 0000.0001) %MON trcstat_ptracer08_del2       =   0.0000000000000E+00
(PID.TID 0000.0001) %MON trcstat_ptracer09_max        =   6.0007073246200E-09
(PID.TID 0000.0001) %MON trcstat_ptracer09_min        =   5.6242395403935E-09
(PID.TID 0000.0001) %MON trcstat_ptracer09_mean       =   5.9217605269096E-09
(PID.TID 0000.0001) %MON trcstat_ptracer09_sd         =   1.0137503920411E-10
(PID.TID 0000.0001) %MON trcstat_ptracer09_del2       =   0.0000000000000E+00
(PID.TID 0000.0001) %MON trcstat_ptracer10_max        =   6.1151193719636E-09
(PID.TID 0000.0001) %MON trcstat_ptracer10_min        =   5.8192617717993E-09
(PID.TID 0000.0001) %MON trcstat_ptracer10_mean       =   6.0556587460976E-09
(PID.TID 0000.0001) %MON trcstat_ptracer10_sd         =   7.9294770908988E-11
(PID.TID 0000.0001) %MON trcstat_ptracer10_del2       =   0.0000000000000E+00
(PID.TID 0000.0001) %MON trcstat_ptracer11_max        =   6.2099876640749E-09
(PID.TID 0000.0001) %MON trcstat_ptracer11_min        =   5.9820245262220E-09
(PID.TID 0000.0001) %MON trcstat_ptracer11_mean       =   6.1659848440189E-09
(PID.TID 0000.0001) %MON trcstat_ptracer11_sd         =   6.0772295202031E-11
(PID.TID 0000.0001) %MON trcstat_ptracer11_del2       =   0.0000000000000E+00
(PID.TID 0000.0001) %MON trcstat_ptracer12_max        =   6.2881047364491E-09
(PID.TID 0000.0001) %MON trcstat_ptracer12_min        =   6.1152638011995E-09
(PID.TID 0000.0001) %MON trcstat_ptracer12_mean       =   6.2560288570491E-09
(PID.TID 0000.0001) %MON trcstat_ptracer12_sd         =   4.5819564009835E-11
(PID.TID 0000.0001) %MON trcstat_ptracer12_del2       =   0.0000000000000E+00
(PID.TID 0000.0001) %MON trcstat_ptracer13_max        =   6.3520114676596E-09
(PID.TID 0000.0001) %MON trcstat_ptracer13_min        =   6.2227702200993E-09
(PID.TID 0000.0001) %MON trcstat_ptracer13_mean       =   6.3289854383761E-09
(PID.TID 0000.0001) %MON trcstat_ptracer13_sd         =   3.3985116303337E-11
(PID.TID 0000.0001) %MON trcstat_ptracer13_del2       =   0.0000000000000E+00
(PID.TID 0000.0001) %MON trcstat_ptracer14_max        =   6.4041433767704E-09
(PID.TID 0000.0001) %MON trcstat_ptracer14_min        =   6.3087393535071E-09
(PID.TID 0000.0001) %MON trcstat_ptracer14_mean       =   6.3877056704168E-09
(PID.TID 0000.0001) %MON trcstat_ptracer14_sd         =   2.4794104505105E-11
(PID.TID 0000.0001) %MON trcstat_ptracer14_del2       =   0.0000000000000E+00
(PID.TID 0000.0001) %MON trcstat_ptracer15_max        =   6.4463471347873E-09
(PID.TID 0000.0001) %MON trcstat_ptracer15_min        =   6.3768885079910E-09
(PID.TID 0000.0001) %MON trcstat_ptracer15_mean       =   6.4346895586164E-09
(PID.TID 0000.0001) %MON trcstat_ptracer15_sd         =   1.7746752793606E-11
(PID.TID 0000.0001) %MON trcstat_ptracer15_del2       =   0.0000000000000E+00
(PID.TID 0000.0001) %MON trcstat_ptracer16_max        =   6.4802914545606E-09
(PID.TID 0000.0001) %MON trcstat_ptracer16_min        =   6.4305011508011E-09
(PID.TID 0000.0001) %MON trcstat_ptracer16_mean       =   6.4720236937122E-09
(PID.TID 0000.0001) %MON trcstat_ptracer16_sd         =   1.2471089850738E-11
(PID.TID 0000.0001) %MON trcstat_ptracer16_del2       =   0.0000000000000E+00
(PID.TID 0000.0001) %MON trcstat_ptracer17_max        =   6.5074335801856E-09
(PID.TID 0000.0001) %MON trcstat_ptracer17_min        =   6.4723694351189E-09
(PID.TID 0000.0001) %MON trcstat_ptracer17_mean       =   6.5015003250952E-09
(PID.TID 0000.0001) %MON trcstat_ptracer17_sd         =   8.5796665598006E-12
(PID.TID 0000.0001) %MON trcstat_ptracer17_del2       =   0.0000000000000E+00
(PID.TID 0000.0001) %MON trcstat_ptracer18_max        =   6.5370040034878E-09
(PID.TID 0000.0001) %MON trcstat_ptracer18_min        =   6.5048099950435E-09
(PID.TID 0000.0001) %MON trcstat_ptracer18_mean       =   6.5245929418644E-09
(PID.TID 0000.0001) %MON trcstat_ptracer18_sd         =   5.7926851499400E-12
(PID.TID 0000.0001) %MON trcstat_ptracer18_del2       =   0.0000000000000E+00
(PID.TID 0000.0001) %MON trcstat_ptracer19_max        =   6.5589571015810E-09
(PID.TID 0000.0001) %MON trcstat_ptracer19_min        =   6.5297147321709E-09
(PID.TID 0000.0001) %MON trcstat_ptracer19_mean       =   6.5425151999330E-09
(PID.TID 0000.0001) %MON trcstat_ptracer19_sd         =   3.9203932425820E-12
(PID.TID 0000.0001) %MON trcstat_ptracer19_del2       =   0.0000000000000E+00
(PID.TID 0000.0001) %MON trcstat_ptracer20_max        =   6.5741411344273E-09
(PID.TID 0000.0001) %MON trcstat_ptracer20_min        =   6.5363857358427E-09
(PID.TID 0000.0001) %MON trcstat_ptracer20_mean       =   6.5562619369489E-09
(PID.TID 0000.0001) %MON trcstat_ptracer20_sd         =   2.9101948534784E-12
(PID.TID 0000.0001) %MON trcstat_ptracer20_del2       =   0.0000000000000E+00
(PID.TID 0000.0001) %MON trcstat_ptracer21_max        =   6.6075797416321E-09
(PID.TID 0000.0001) %MON trcstat_ptracer21_min        =   6.5997483914799E-09
(PID.TID 0000.0001) %MON trcstat_ptracer21_mean       =   6.6064934078277E-09
(PID.TID 0000.0001) %MON trcstat_ptracer21_sd         =   2.1424471738050E-12
(PID.TID 0000.0001) %MON trcstat_ptracer21_del2       =   0.0000000000000E+00
(PID.TID 0000.0001) %MON trcstat_ptracer22_max        =   1.2393184882039E-09
(PID.TID 0000.0001) %MON trcstat_ptracer22_min        =   9.4693391725631E-10
(PID.TID 0000.0001) %MON trcstat_ptracer22_mean       =   1.0174864065912E-09
(PID.TID 0000.0001) %MON trcstat_ptracer22_sd         =   7.9482543181211E-11
(PID.TID 0000.0001) %MON trcstat_ptracer22_del2       =   0.0000000000000E+00
(PID.TID 0000.0001) %MON trcstat_ptracer23_max        =   1.1181638656248E-09
(PID.TID 0000.0001) %MON trcstat_ptracer23_min        =   8.6881592844582E-10
(PID.TID 0000.0001) %MON trcstat_ptracer23_mean       =   9.2553360970733E-10
(PID.TID 0000.0001) %MON trcstat_ptracer23_sd         =   6.7423058044816E-11
(PID.TID 0000.0001) %MON trcstat_ptracer23_del2       =   0.0000000000000E+00
(PID.TID 0000.0001) %MON trcstat_ptracer24_max        =   1.0073011791327E-09
(PID.TID 0000.0001) %MON trcstat_ptracer24_min        =   8.0124926108980E-10
(PID.TID 0000.0001) %MON trcstat_ptracer24_mean       =   8.4578079409621E-10
(PID.TID 0000.0001) %MON trcstat_ptracer24_sd         =   5.5494564358838E-11
(PID.TID 0000.0001) %MON trcstat_ptracer24_del2       =   0.0000000000000E+00
(PID.TID 0000.0001) %MON trcstat_ptracer25_max        =   9.0914111907148E-10
(PID.TID 0000.0001) %MON trcstat_ptracer25_min        =   7.4294513000382E-10
(PID.TID 0000.0001) %MON trcstat_ptracer25_mean       =   7.7724138883257E-10
(PID.TID 0000.0001) %MON trcstat_ptracer25_sd         =   4.4617775775561E-11
(PID.TID 0000.0001) %MON trcstat_ptracer25_del2       =   0.0000000000000E+00
(PID.TID 0000.0001) %MON trcstat_ptracer26_max        =   8.2463062887634E-10
(PID.TID 0000.0001) %MON trcstat_ptracer26_min        =   6.9384125170631E-10
(PID.TID 0000.0001) %MON trcstat_ptracer26_mean       =   7.1975027792767E-10
(PID.TID 0000.0001) %MON trcstat_ptracer26_sd         =   3.5065598772783E-11
(PID.TID 0000.0001) %MON trcstat_ptracer26_del2       =   0.0000000000000E+00
(PID.TID 0000.0001) %MON trcstat_ptracer27_max        =   7.5411541528019E-10
(PID.TID 0000.0001) %MON trcstat_ptracer27_min        =   6.5312525264432E-10
(PID.TID 0000.0001) %MON trcstat_ptracer27_mean       =   6.7238787787464E-10
(PID.TID 0000.0001) %MON trcstat_ptracer27_sd         =   2.7060859181768E-11
(PID.TID 0000.0001) %MON trcstat_ptracer27_del2       =   0.0000000000000E+00
(PID.TID 0000.0001) %MON trcstat_ptracer28_max        =   6.9626252501024E-10
(PID.TID 0000.0001) %MON trcstat_ptracer28_min        =   6.1959862018088E-10
(PID.TID 0000.0001) %MON trcstat_ptracer28_mean       =   6.3372083584933E-10
(PID.TID 0000.0001) %MON trcstat_ptracer28_sd         =   2.0555445371532E-11
(PID.TID 0000.0001) %MON trcstat_ptracer28_del2       =   0.0000000000000E+00
(PID.TID 0000.0001) %MON trcstat_ptracer29_max        =   6.4948454286547E-10
(PID.TID 0000.0001) %MON trcstat_ptracer29_min        =   5.9217084908160E-10
(PID.TID 0000.0001) %MON trcstat_ptracer29_mean       =   6.0239192753210E-10
(PID.TID 0000.0001) %MON trcstat_ptracer29_sd         =   1.5389239025347E-11
(PID.TID 0000.0001) %MON trcstat_ptracer29_del2       =   0.0000000000000E+00
(PID.TID 0000.0001) %MON trcstat_ptracer30_max        =   6.1205893082381E-10
(PID.TID 0000.0001) %MON trcstat_ptracer30_min        =   5.6987402968517E-10
(PID.TID 0000.0001) %MON trcstat_ptracer30_mean       =   5.7717670300981E-10
(PID.TID 0000.0001) %MON trcstat_ptracer30_sd         =   1.1354046186612E-11
(PID.TID 0000.0001) %MON trcstat_ptracer30_del2       =   0.0000000000000E+00
(PID.TID 0000.0001) %MON trcstat_ptracer31_max        =   5.8237556626381E-10
(PID.TID 0000.0001) %MON trcstat_ptracer31_min        =   5.5186438366156E-10
(PID.TID 0000.0001) %MON trcstat_ptracer31_mean       =   5.5700797354456E-10
(PID.TID 0000.0001) %MON trcstat_ptracer31_sd         =   8.2409783708459E-12
(PID.TID 0000.0001) %MON trcstat_ptracer31_del2       =   0.0000000000000E+00
(PID.TID 0000.0001) %MON trcstat_ptracer32_max        =   5.5904190282771E-10
(PID.TID 0000.0001) %MON trcstat_ptracer32_min        =   5.3741619961612E-10
(PID.TID 0000.0001) %MON trcstat_ptracer32_mean       =   5.4097600094383E-10
(PID.TID 0000.0001) %MON trcstat_ptracer32_sd         =   5.8604341565764E-12
(PID.TID 0000.0001) %MON trcstat_ptracer32_del2       =   0.0000000000000E+00
(PID.TID 0000.0001) %MON trcstat_ptracer33_max        =   5.4087066013406E-10
(PID.TID 0000.0001) %MON trcstat_ptracer33_min        =   5.2591175883307E-10
(PID.TID 0000.0001) %MON trcstat_ptracer33_mean       =   5.2831828534902E-10
(PID.TID 0000.0001) %MON trcstat_ptracer33_sd         =   4.0538499374748E-12
(PID.TID 0000.0001) %MON trcstat_ptracer33_del2       =   0.0000000000000E+00
(PID.TID 0000.0001) %MON trcstat_ptracer34_max        =   5.2683632430465E-10
(PID.TID 0000.0001) %MON trcstat_ptracer34_min        =   5.1682953410167E-10
(PID.TID 0000.0001) %MON trcstat_ptracer34_mean       =   5.1840200620184E-10
(PID.TID 0000.0001) %MON trcstat_ptracer34_sd         =   2.6924165968740E-12
(PID.TID 0000.0001) %MON trcstat_ptracer34_del2       =   0.0000000000000E+00
(PID.TID 0000.0001) %MON trcstat_ptracer35_max        =   5.1605787961149E-10
(PID.TID 0000.0001) %MON trcstat_ptracer35_min        =   5.0973205702830E-10
(PID.TID 0000.0001) %MON trcstat_ptracer35_mean       =   5.1070594953477E-10
(PID.TID 0000.0001) %MON trcstat_ptracer35_sd         =   1.6762576713918E-12
(PID.TID 0000.0001) %MON trcstat_ptracer35_del2       =   0.0000000000000E+00
(PID.TID 0000.0001) %MON trcstat_ptracer36_max        =   5.0787787396965E-10
(PID.TID 0000.0001) %MON trcstat_ptracer36_min        =   5.0331082522043E-10
(PID.TID 0000.0001) %MON trcstat_ptracer36_mean       =   5.0480288402292E-10
(PID.TID 0000.0001) %MON trcstat_ptracer36_sd         =   9.3707499088477E-13
(PID.TID 0000.0001) %MON trcstat_ptracer36_del2       =   0.0000000000000E+00
(PID.TID 0000.0001) %MON trcstat_ptracer37_max        =   4.9868524158228E-10
(PID.TID 0000.0001) %MON trcstat_ptracer37_min        =   4.9809419631379E-10
(PID.TID 0000.0001) %MON trcstat_ptracer37_mean       =   4.9860325412895E-10
(PID.TID 0000.0001) %MON trcstat_ptracer37_sd         =   1.6169411920852E-13
(PID.TID 0000.0001) %MON trcstat_ptracer37_del2       =   0.0000000000000E+00
(PID.TID 0000.0001) %MON trcstat_ptracer38_max        =   5.3120333719415E-14
(PID.TID 0000.0001) %MON trcstat_ptracer38_min        =   2.9776026213014E-14
(PID.TID 0000.0001) %MON trcstat_ptracer38_mean       =   4.2966595187842E-14
(PID.TID 0000.0001) %MON trcstat_ptracer38_sd         =   8.5009729406803E-15
(PID.TID 0000.0001) %MON trcstat_ptracer38_del2       =   0.0000000000000E+00
(PID.TID 0000.0001) %MON trcstat_ptracer39_max        =   4.9692822054743E-14
(PID.TID 0000.0001) %MON trcstat_ptracer39_min        =   2.9775995661576E-14
(PID.TID 0000.0001) %MON trcstat_ptracer39_mean       =   4.0880246196744E-14
(PID.TID 0000.0001) %MON trcstat_ptracer39_sd         =   7.1734214266721E-15
(PID.TID 0000.0001) %MON trcstat_ptracer39_del2       =   0.0000000000000E+00
(PID.TID 0000.0001) %MON trcstat_ptracer40_max        =   4.6617059861197E-14
(PID.TID 0000.0001) %MON trcstat_ptracer40_min        =   2.9775952473755E-14
(PID.TID 0000.0001) %MON trcstat_ptracer40_mean       =   3.9062627460717E-14
(PID.TID 0000.0001) %MON trcstat_ptracer40_sd         =   6.0121361950956E-15
(PID.TID 0000.0001) %MON trcstat_ptracer40_del2       =   0.0000000000000E+00
(PID.TID 0000.0001) %MON trcstat_ptracer41_max        =   4.3908348168186E-14
(PID.TID 0000.0001) %MON trcstat_ptracer41_min        =   2.9775923855351E-14
(PID.TID 0000.0001) %MON trcstat_ptracer41_mean       =   3.7496268905994E-14
(PID.TID 0000.0001) %MON trcstat_ptracer41_sd         =   5.0077441261229E-15
(PID.TID 0000.0001) %MON trcstat_ptracer41_del2       =   0.0000000000000E+00
(PID.TID 0000.0001) %MON trcstat_ptracer42_max        =   4.1539041485577E-14
(PID.TID 0000.0001) %MON trcstat_ptracer42_min        =   2.9775905483891E-14
(PID.TID 0000.0001) %MON trcstat_ptracer42_mean       =   3.6154874153843E-14
(PID.TID 0000.0001) %MON trcstat_ptracer42_sd         =   4.1447794311005E-15
(PID.TID 0000.0001) %MON trcstat_ptracer42_del2       =   0.0000000000000E+00
(PID.TID 0000.0001) %MON trcstat_ptracer43_max        =   3.9493532511422E-14
(PID.TID 0000.0001) %MON trcstat_ptracer43_min        =   2.9775894256801E-14
(PID.TID 0000.0001) %MON trcstat_ptracer43_mean       =   3.5014317947600E-14
(PID.TID 0000.0001) %MON trcstat_ptracer43_sd         =   3.4089596046350E-15
(PID.TID 0000.0001) %MON trcstat_ptracer43_del2       =   0.0000000000000E+00
(PID.TID 0000.0001) %MON trcstat_ptracer44_max        =   3.7744510683193E-14
(PID.TID 0000.0001) %MON trcstat_ptracer44_min        =   2.9775887926120E-14
(PID.TID 0000.0001) %MON trcstat_ptracer44_mean       =   3.4051607382395E-14
(PID.TID 0000.0001) %MON trcstat_ptracer44_sd         =   2.7863893619816E-15
(PID.TID 0000.0001) %MON trcstat_ptracer44_del2       =   0.0000000000000E+00
(PID.TID 0000.0001) %MON trcstat_ptracer45_max        =   3.6263437659673E-14
(PID.TID 0000.0001) %MON trcstat_ptracer45_min        =   2.9775884838859E-14
(PID.TID 0000.0001) %MON trcstat_ptracer45_mean       =   3.3244362847074E-14
(PID.TID 0000.0001) %MON trcstat_ptracer45_sd         =   2.2632976354413E-15
(PID.TID 0000.0001) %MON trcstat_ptracer45_del2       =   0.0000000000000E+00
(PID.TID 0000.0001) %MON trcstat_ptracer46_max        =   3.5019177041951E-14
(PID.TID 0000.0001) %MON trcstat_ptracer46_min        =   2.9775883774322E-14
(PID.TID 0000.0001) %MON trcstat_ptracer46_mean       =   3.2571625272345E-14
(PID.TID 0000.0001) %MON trcstat_ptracer46_sd         =   1.8265725120330E-15
(PID.TID 0000.0001) %MON trcstat_ptracer46_del2       =   0.0000000000000E+00
(PID.TID 0000.0001) %MON trcstat_ptracer47_max        =   3.3983642962278E-14
(PID.TID 0000.0001) %MON trcstat_ptracer47_min        =   2.9775883827142E-14
(PID.TID 0000.0001) %MON trcstat_ptracer47_mean       =   3.2014343993423E-14
(PID.TID 0000.0001) %MON trcstat_ptracer47_sd         =   1.4641652762507E-15
(PID.TID 0000.0001) %MON trcstat_ptracer47_del2       =   0.0000000000000E+00
(PID.TID 0000.0001) %MON trcstat_ptracer48_max        =   3.3127610546703E-14
(PID.TID 0000.0001) %MON trcstat_ptracer48_min        =   2.9775884326292E-14
(PID.TID 0000.0001) %MON trcstat_ptracer48_mean       =   3.1555516623570E-14
(PID.TID 0000.0001) %MON trcstat_ptracer48_sd         =   1.1652238961659E-15
(PID.TID 0000.0001) %MON trcstat_ptracer48_del2       =   0.0000000000000E+00
(PID.TID 0000.0001) %MON trcstat_ptracer49_max        =   3.2426945323321E-14
(PID.TID 0000.0001) %MON trcstat_ptracer49_min        =   2.9775884781276E-14
(PID.TID 0000.0001) %MON trcstat_ptracer49_mean       =   3.1180190320708E-14
(PID.TID 0000.0001) %MON trcstat_ptracer49_sd         =   9.2015670309173E-16
(PID.TID 0000.0001) %MON trcstat_ptracer49_del2       =   0.0000000000000E+00
(PID.TID 0000.0001) %MON trcstat_ptracer50_max        =   3.1856217094302E-14
(PID.TID 0000.0001) %MON trcstat_ptracer50_min        =   2.9775884847733E-14
(PID.TID 0000.0001) %MON trcstat_ptracer50_mean       =   3.0875305725978E-14
(PID.TID 0000.0001) %MON trcstat_ptracer50_sd         =   7.2054721257313E-16
(PID.TID 0000.0001) %MON trcstat_ptracer50_del2       =   0.0000000000000E+00
(PID.TID 0000.0001) %MON trcstat_ptracer51_max        =   3.1394392044460E-14
(PID.TID 0000.0001) %MON trcstat_ptracer51_min        =   2.9775884305820E-14
(PID.TID 0000.0001) %MON trcstat_ptracer51_mean       =   3.0629520035170E-14
(PID.TID 0000.0001) %MON trcstat_ptracer51_sd         =   5.5906772395898E-16
(PID.TID 0000.0001) %MON trcstat_ptracer51_del2       =   0.0000000000000E+00
(PID.TID 0000.0001) %MON trcstat_ptracer52_max        =   3.1023784360818E-14
(PID.TID 0000.0001) %MON trcstat_ptracer52_min        =   2.9775883045904E-14
(PID.TID 0000.0001) %MON trcstat_ptracer52_mean       =   3.0433013150363E-14
(PID.TID 0000.0001) %MON trcstat_ptracer52_sd         =   4.2937902567085E-16
(PID.TID 0000.0001) %MON trcstat_ptracer52_del2       =   0.0000000000000E+00
(PID.TID 0000.0001) %MON trcstat_ptracer53_max        =   2.9921114816098E-14
(PID.TID 0000.0001) %MON trcstat_ptracer53_min        =   2.9885652099608E-14
(PID.TID 0000.0001) %MON trcstat_ptracer53_mean       =   2.9916195568845E-14
(PID.TID 0000.0001) %MON trcstat_ptracer53_sd         =   9.7016472566717E-18
(PID.TID 0000.0001) %MON trcstat_ptracer53_del2       =   0.0000000000000E+00
(PID.TID 0000.0001) %MON trcstat_ptracer54_max        =   2.2021081464871E-09
(PID.TID 0000.0001) %MON trcstat_ptracer54_min        =   9.9252492337907E-10
(PID.TID 0000.0001) %MON trcstat_ptracer54_mean       =   1.0326593331254E-09
(PID.TID 0000.0001) %MON trcstat_ptracer54_sd         =   2.1290463525719E-10
(PID.TID 0000.0001) %MON trcstat_ptracer54_del2       =   0.0000000000000E+00
(PID.TID 0000.0001) %MON trcstat_ptracer55_max        =   2.2107724239873E-09
(PID.TID 0000.0001) %MON trcstat_ptracer55_min        =   9.9252492337907E-10
(PID.TID 0000.0001) %MON trcstat_ptracer55_mean       =   1.0317714277576E-09
(PID.TID 0000.0001) %MON trcstat_ptracer55_sd         =   2.0836390448105E-10
(PID.TID 0000.0001) %MON trcstat_ptracer55_del2       =   0.0000000000000E+00
(PID.TID 0000.0001) %MON trcstat_ptracer56_max        =   1.9871666066285E-09
(PID.TID 0000.0001) %MON trcstat_ptracer56_min        =   9.9252492337907E-10
(PID.TID 0000.0001) %MON trcstat_ptracer56_mean       =   1.0255339152321E-09
(PID.TID 0000.0001) %MON trcstat_ptracer56_sd         =   1.7509185765811E-10
(PID.TID 0000.0001) %MON trcstat_ptracer56_del2       =   0.0000000000000E+00
(PID.TID 0000.0001) %MON trcstat_ptracer57_max        =   1.9078154420949E-09
(PID.TID 0000.0001) %MON trcstat_ptracer57_min        =   9.9252492337907E-10
(PID.TID 0000.0001) %MON trcstat_ptracer57_mean       =   1.0225832793789E-09
(PID.TID 0000.0001) %MON trcstat_ptracer57_sd         =   1.5947021788987E-10
(PID.TID 0000.0001) %MON trcstat_ptracer57_del2       =   0.0000000000000E+00
(PID.TID 0000.0001) %MON trcstat_ptracer58_max        =   1.7124871118127E-09
(PID.TID 0000.0001) %MON trcstat_ptracer58_min        =   9.9252492337907E-10
(PID.TID 0000.0001) %MON trcstat_ptracer58_mean       =   1.0164493184717E-09
(PID.TID 0000.0001) %MON trcstat_ptracer58_sd         =   1.2688510788670E-10
(PID.TID 0000.0001) %MON trcstat_ptracer58_del2       =   0.0000000000000E+00
(PID.TID 0000.0001) %MON trcstat_ptracer59_max        =   1.5524544226738E-09
(PID.TID 0000.0001) %MON trcstat_ptracer59_min        =   9.9252492337907E-10
(PID.TID 0000.0001) %MON trcstat_ptracer59_mean       =   1.0114089708079E-09
(PID.TID 0000.0001) %MON trcstat_ptracer59_sd         =   1.0011464271161E-10
(PID.TID 0000.0001) %MON trcstat_ptracer59_del2       =   0.0000000000000E+00
(PID.TID 0000.0001) %MON trcstat_ptracer60_max        =   1.4223853757331E-09
(PID.TID 0000.0001) %MON trcstat_ptracer60_min        =   9.9252492337907E-10
(PID.TID 0000.0001) %MON trcstat_ptracer60_mean       =   1.0070504078374E-09
(PID.TID 0000.0001) %MON trcstat_ptracer60_sd         =   7.6989426418131E-11
(PID.TID 0000.0001) %MON trcstat_ptracer60_del2       =   0.0000000000000E+00
(PID.TID 0000.0001) %MON trcstat_ptracer61_max        =   1.3188456072142E-09
(PID.TID 0000.0001) %MON trcstat_ptracer61_min        =   9.9252492337907E-10
(PID.TID 0000.0001) %MON trcstat_ptracer61_mean       =   1.0035673469839E-09
(PID.TID 0000.0001) %MON trcstat_ptracer61_sd         =   5.8505772231075E-11
(PID.TID 0000.0001) %MON trcstat_ptracer61_del2       =   0.0000000000000E+00
(PID.TID 0000.0001) %MON trcstat_ptracer62_max        =   1.2372284606645E-09
(PID.TID 0000.0001) %MON trcstat_ptracer62_min        =   9.9252492337907E-10
(PID.TID 0000.0001) %MON trcstat_ptracer62_mean       =   1.0008148188757E-09
(PID.TID 0000.0001) %MON trcstat_ptracer62_sd         =   4.3893453322922E-11
(PID.TID 0000.0001) %MON trcstat_ptracer62_del2       =   0.0000000000000E+00
(PID.TID 0000.0001) %MON trcstat_ptracer63_max        =   1.1736869160674E-09
(PID.TID 0000.0001) %MON trcstat_ptracer63_min        =   9.9252492337907E-10
(PID.TID 0000.0001) %MON trcstat_ptracer63_mean       =   9.9870709365840E-10
(PID.TID 0000.0001) %MON trcstat_ptracer63_sd         =   3.2694209310171E-11
(PID.TID 0000.0001) %MON trcstat_ptracer63_del2       =   0.0000000000000E+00
(PID.TID 0000.0001) %MON trcstat_ptracer64_max        =   1.1239452796481E-09
(PID.TID 0000.0001) %MON trcstat_ptracer64_min        =   9.9252492337907E-10
(PID.TID 0000.0001) %MON trcstat_ptracer64_mean       =   9.9701177725745E-10
(PID.TID 0000.0001) %MON trcstat_ptracer64_sd         =   2.3679208825805E-11
(PID.TID 0000.0001) %MON trcstat_ptracer64_del2       =   0.0000000000000E+00
(PID.TID 0000.0001) %MON trcstat_ptracer65_max        =   1.0854921888103E-09
(PID.TID 0000.0001) %MON trcstat_ptracer65_min        =   9.9252492337907E-10
(PID.TID 0000.0001) %MON trcstat_ptracer65_mean       =   9.9570067693819E-10
(PID.TID 0000.0001) %MON trcstat_ptracer65_sd         =   1.6694320256359E-11
(PID.TID 0000.0001) %MON trcstat_ptracer65_del2       =   0.0000000000000E+00
(PID.TID 0000.0001) %MON trcstat_ptracer66_max        =   1.0559543892761E-09
(PID.TID 0000.0001) %MON trcstat_ptracer66_min        =   9.9252492337907E-10
(PID.TID 0000.0001) %MON trcstat_ptracer66_mean       =   9.9469333021522E-10
(PID.TID 0000.0001) %MON trcstat_ptracer66_sd         =   1.1311191221332E-11
(PID.TID 0000.0001) %MON trcstat_ptracer66_del2       =   0.0000000000000E+00
(PID.TID 0000.0001) %MON trcstat_ptracer67_max        =   1.0334401120881E-09
(PID.TID 0000.0001) %MON trcstat_ptracer67_min        =   9.9252492337907E-10
(PID.TID 0000.0001) %MON trcstat_ptracer67_mean       =   9.9392550809262E-10
(PID.TID 0000.0001) %MON trcstat_ptracer67_sd         =   7.1884119481243E-12
(PID.TID 0000.0001) %MON trcstat_ptracer67_del2       =   0.0000000000000E+00
(PID.TID 0000.0001) %MON trcstat_ptracer68_max        =   1.0164787783430E-09
(PID.TID 0000.0001) %MON trcstat_ptracer68_min        =   9.9252492337907E-10
(PID.TID 0000.0001) %MON trcstat_ptracer68_mean       =   9.9334633728668E-10
(PID.TID 0000.0001) %MON trcstat_ptracer68_sd         =   4.0609932430980E-12
(PID.TID 0000.0001) %MON trcstat_ptracer68_del2       =   0.0000000000000E+00
(PID.TID 0000.0001) %MON trcstat_ptracer69_max        =   1.4382017126214E-09
(PID.TID 0000.0001) %MON trcstat_ptracer69_min        =   1.4308892860518E-09
(PID.TID 0000.0001) %MON trcstat_ptracer69_mean       =   1.4366264764616E-09
(PID.TID 0000.0001) %MON trcstat_ptracer69_sd         =   1.9762086074337E-12
(PID.TID 0000.0001) %MON trcstat_ptracer69_del2       =   0.0000000000000E+00
(PID.TID 0000.0001) %MON trcstat_ptracer70_max        =   3.0102385552046E-10
(PID.TID 0000.0001) %MON trcstat_ptracer70_min        =   2.6843832088489E-10
(PID.TID 0000.0001) %MON trcstat_ptracer70_mean       =   2.9982652921454E-10
(PID.TID 0000.0001) %MON trcstat_ptracer70_sd         =   1.7724210511181E-12
(PID.TID 0000.0001) %MON trcstat_ptracer70_del2       =   0.0000000000000E+00
(PID.TID 0000.0001) %MON trcstat_ptracer71_max        =   4.4398081219973E-11
(PID.TID 0000.0001) %MON trcstat_ptracer71_min        =   3.9856827301886E-11
(PID.TID 0000.0001) %MON trcstat_ptracer71_mean       =   4.0726088369759E-11
(PID.TID 0000.0001) %MON trcstat_ptracer71_sd         =   1.2291242277502E-12
(PID.TID 0000.0001) %MON trcstat_ptracer71_del2       =   0.0000000000000E+00
(PID.TID 0000.0001) %MON trcstat_ptracer72_max        =   2.7058519586138E-01
(PID.TID 0000.0001) %MON trcstat_ptracer72_min        =   2.5232640740515E-11
(PID.TID 0000.0001) %MON trcstat_ptracer72_mean       =   3.2830852765684E-02
(PID.TID 0000.0001) %MON trcstat_ptracer72_sd         =   8.2501035027784E-02
(PID.TID 0000.0001) %MON trcstat_ptracer72_del2       =   0.0000000000000E+00
(PID.TID 0000.0001) %MON trcstat_ptracer73_max        =   3.0285776737469E-02
(PID.TID 0000.0001) %MON trcstat_ptracer73_min        =   9.0936232510223E-12
(PID.TID 0000.0001) %MON trcstat_ptracer73_mean       =   1.4897777192348E-02
(PID.TID 0000.0001) %MON trcstat_ptracer73_sd         =   1.1088407420286E-02
(PID.TID 0000.0001) %MON trcstat_ptracer73_del2       =   0.0000000000000E+00
(PID.TID 0000.0001) %MON trcstat_ptracer74_max        =   1.6911574500988E-05
(PID.TID 0000.0001) %MON trcstat_ptracer74_min        =   1.3818883145526E-15
(PID.TID 0000.0001) %MON trcstat_ptracer74_mean       =   2.0519282965094E-06
(PID.TID 0000.0001) %MON trcstat_ptracer74_sd         =   5.1563146831857E-06
(PID.TID 0000.0001) %MON trcstat_ptracer74_del2       =   0.0000000000000E+00
(PID.TID 0000.0001) %MON trcstat_ptracer75_max        =   1.8979389370860E-06
(PID.TID 0000.0001) %MON trcstat_ptracer75_min        =   5.6972274064311E-16
(PID.TID 0000.0001) %MON trcstat_ptracer75_mean       =   9.3370607446663E-07
(PID.TID 0000.0001) %MON trcstat_ptracer75_sd         =   6.9486274650908E-07
(PID.TID 0000.0001) %MON trcstat_ptracer75_del2       =   0.0000000000000E+00
(PID.TID 0000.0001) // =======================================================
(PID.TID 0000.0001) // End MONITOR ptracers field statistics
(PID.TID 0000.0001) // =======================================================
(PID.TID 0000.0001) // =======================================================
(PID.TID 0000.0001) // Begin MONITOR dynamic field statistics
(PID.TID 0000.0001) // =======================================================
(PID.TID 0000.0001) %MON time_tsnumber                =                     4
(PID.TID 0000.0001) %MON time_secondsf                =   4.3200000000000E+04
(PID.TID 0000.0001) %MON dynstat_eta_max              =   0.0000000000000E+00
(PID.TID 0000.0001) %MON dynstat_eta_min              =   0.0000000000000E+00
(PID.TID 0000.0001) %MON dynstat_eta_mean             =   0.0000000000000E+00
(PID.TID 0000.0001) %MON dynstat_eta_sd               =   0.0000000000000E+00
(PID.TID 0000.0001) %MON dynstat_eta_del2             =   0.0000000000000E+00
(PID.TID 0000.0001) %MON dynstat_uvel_max             =   0.0000000000000E+00
(PID.TID 0000.0001) %MON dynstat_uvel_min             =   0.0000000000000E+00
(PID.TID 0000.0001) %MON dynstat_uvel_mean            =   0.0000000000000E+00
(PID.TID 0000.0001) %MON dynstat_uvel_sd              =   0.0000000000000E+00
(PID.TID 0000.0001) %MON dynstat_uvel_del2            =   0.0000000000000E+00
(PID.TID 0000.0001) %MON dynstat_vvel_max             =   0.0000000000000E+00
(PID.TID 0000.0001) %MON dynstat_vvel_min             =   0.0000000000000E+00
(PID.TID 0000.0001) %MON dynstat_vvel_mean            =   0.0000000000000E+00
(PID.TID 0000.0001) %MON dynstat_vvel_sd              =   0.0000000000000E+00
(PID.TID 0000.0001) %MON dynstat_vvel_del2            =   0.0000000000000E+00
(PID.TID 0000.0001) %MON dynstat_wvel_max             =   0.0000000000000E+00
(PID.TID 0000.0001) %MON dynstat_wvel_min             =   0.0000000000000E+00
(PID.TID 0000.0001) %MON dynstat_wvel_mean            =   0.0000000000000E+00
(PID.TID 0000.0001) %MON dynstat_wvel_sd              =   0.0000000000000E+00
(PID.TID 0000.0001) %MON dynstat_wvel_del2            =   0.0000000000000E+00
(PID.TID 0000.0001) %MON dynstat_theta_max            =   6.4955094188052E+00
(PID.TID 0000.0001) %MON dynstat_theta_min            =  -9.3886553567890E-01
(PID.TID 0000.0001) %MON dynstat_theta_mean           =   1.5612872667614E-01
(PID.TID 0000.0001) %MON dynstat_theta_sd             =   2.0856205097386E+00
(PID.TID 0000.0001) %MON dynstat_theta_del2           =   0.0000000000000E+00
(PID.TID 0000.0001) %MON dynstat_salt_max             =   3.5000000000000E+01
(PID.TID 0000.0001) %MON dynstat_salt_min             =   3.5000000000000E+01
(PID.TID 0000.0001) %MON dynstat_salt_mean            =   3.5000000000000E+01
(PID.TID 0000.0001) %MON dynstat_salt_sd              =   7.1054273576010E-15
(PID.TID 0000.0001) %MON dynstat_salt_del2            =   0.0000000000000E+00
(PID.TID 0000.0001) %MON dynstat_sst_max              =   6.4955094188052E+00
(PID.TID 0000.0001) %MON dynstat_sst_min              =   6.4955094188052E+00
(PID.TID 0000.0001) %MON dynstat_sst_mean             =   6.4955094188052E+00
(PID.TID 0000.0001) %MON dynstat_sst_sd               =   0.0000000000000E+00
(PID.TID 0000.0001) %MON dynstat_sst_del2             =   0.0000000000000E+00
(PID.TID 0000.0001) %MON dynstat_sss_max              =   3.5000000000000E+01
(PID.TID 0000.0001) %MON dynstat_sss_min              =   3.5000000000000E+01
(PID.TID 0000.0001) %MON dynstat_sss_mean             =   3.5000000000000E+01
(PID.TID 0000.0001) %MON dynstat_sss_sd               =   0.0000000000000E+00
(PID.TID 0000.0001) %MON dynstat_sss_del2             =   0.0000000000000E+00
(PID.TID 0000.0001) %MON forcing_qnet_max             =   0.0000000000000E+00
(PID.TID 0000.0001) %MON forcing_qnet_min             =   0.0000000000000E+00
(PID.TID 0000.0001) %MON forcing_qnet_mean            =   0.0000000000000E+00
(PID.TID 0000.0001) %MON forcing_qnet_sd              =   0.0000000000000E+00
(PID.TID 0000.0001) %MON forcing_qnet_del2            =   0.0000000000000E+00
(PID.TID 0000.0001) %MON forcing_qsw_max              =   0.0000000000000E+00
(PID.TID 0000.0001) %MON forcing_qsw_min              =   0.0000000000000E+00
(PID.TID 0000.0001) %MON forcing_qsw_mean             =   0.0000000000000E+00
(PID.TID 0000.0001) %MON forcing_qsw_sd               =   0.0000000000000E+00
(PID.TID 0000.0001) %MON forcing_qsw_del2             =   0.0000000000000E+00
(PID.TID 0000.0001) %MON forcing_empmr_max            =   0.0000000000000E+00
(PID.TID 0000.0001) %MON forcing_empmr_min            =   0.0000000000000E+00
(PID.TID 0000.0001) %MON forcing_empmr_mean           =   0.0000000000000E+00
(PID.TID 0000.0001) %MON forcing_empmr_sd             =   0.0000000000000E+00
(PID.TID 0000.0001) %MON forcing_empmr_del2           =   0.0000000000000E+00
(PID.TID 0000.0001) %MON forcing_fu_max               =   2.2681041941047E+00
(PID.TID 0000.0001) %MON forcing_fu_min               =   2.2681041941047E+00
(PID.TID 0000.0001) %MON forcing_fu_mean              =   2.2681041941047E+00
(PID.TID 0000.0001) %MON forcing_fu_sd                =   0.0000000000000E+00
(PID.TID 0000.0001) %MON forcing_fu_del2              =   0.0000000000000E+00
(PID.TID 0000.0001) %MON forcing_fv_max               =   1.1514206402004E+00
(PID.TID 0000.0001) %MON forcing_fv_min               =   1.1514206402004E+00
(PID.TID 0000.0001) %MON forcing_fv_mean              =   1.1514206402004E+00
(PID.TID 0000.0001) %MON forcing_fv_sd                =   0.0000000000000E+00
(PID.TID 0000.0001) %MON forcing_fv_del2              =   0.0000000000000E+00
(PID.TID 0000.0001) %MON advcfl_uvel_max              =   0.0000000000000E+00
(PID.TID 0000.0001) %MON advcfl_vvel_max              =   0.0000000000000E+00
(PID.TID 0000.0001) %MON advcfl_wvel_max              =   0.0000000000000E+00
(PID.TID 0000.0001) %MON advcfl_W_hf_max              =   0.0000000000000E+00
(PID.TID 0000.0001) %MON pe_b_mean                    =   0.0000000000000E+00
(PID.TID 0000.0001) %MON ke_max                       =   0.0000000000000E+00
(PID.TID 0000.0001) %MON ke_mean                      =   0.0000000000000E+00
(PID.TID 0000.0001) %MON ke_vol                       =   4.1199767883485E+13
(PID.TID 0000.0001) %MON vort_r_min                   =   0.0000000000000E+00
(PID.TID 0000.0001) %MON vort_r_max                   =   0.0000000000000E+00
(PID.TID 0000.0001) %MON vort_a_mean                  =  -4.5067801836625E-05
(PID.TID 0000.0001) %MON vort_a_sd                    =  -4.1359030627651E-25
(PID.TID 0000.0001) %MON vort_p_mean                  =  -4.5067801836625E-05
(PID.TID 0000.0001) %MON vort_p_sd                    =   0.0000000000000E+00
(PID.TID 0000.0001) %MON surfExpan_theta_mean         =   0.0000000000000E+00
(PID.TID 0000.0001) %MON surfExpan_salt_mean          =   0.0000000000000E+00
(PID.TID 0000.0001) // =======================================================
(PID.TID 0000.0001) // End MONITOR dynamic field statistics
(PID.TID 0000.0001) // =======================================================
(PID.TID 0000.0001) // =======================================================
(PID.TID 0000.0001) // Begin MONITOR ptracer field statistics
(PID.TID 0000.0001) // =======================================================
(PID.TID 0000.0001) %MON trcstat_ptracer01_max        =   2.1623998898885E+03
(PID.TID 0000.0001) %MON trcstat_ptracer01_min        =   2.0972926832164E+03
(PID.TID 0000.0001) %MON trcstat_ptracer01_mean       =   2.1557233177770E+03
(PID.TID 0000.0001) %MON trcstat_ptracer01_sd         =   1.1436552843807E+01
(PID.TID 0000.0001) %MON trcstat_ptracer01_del2       =   0.0000000000000E+00
(PID.TID 0000.0001) %MON trcstat_ptracer02_max        =   1.5341495686220E+01
(PID.TID 0000.0001) %MON trcstat_ptracer02_min        =   1.1901701218689E+01
(PID.TID 0000.0001) %MON trcstat_ptracer02_mean       =   1.4471950945057E+01
(PID.TID 0000.0001) %MON trcstat_ptracer02_sd         =   9.1931162113711E-01
(PID.TID 0000.0001) %MON trcstat_ptracer02_del2       =   0.0000000000000E+00
(PID.TID 0000.0001) %MON trcstat_ptracer03_max        =   3.8203595826896E-02
(PID.TID 0000.0001) %MON trcstat_ptracer03_min        =   2.9658441584560E-12
(PID.TID 0000.0001) %MON trcstat_ptracer03_mean       =   7.7540276320154E-03
(PID.TID 0000.0001) %MON trcstat_ptracer03_sd         =   1.0847970033897E-02
(PID.TID 0000.0001) %MON trcstat_ptracer03_del2       =   0.0000000000000E+00
(PID.TID 0000.0001) %MON trcstat_ptracer04_max        =   2.4177239758448E-03
(PID.TID 0000.0001) %MON trcstat_ptracer04_min        =   2.0122102945048E-13
(PID.TID 0000.0001) %MON trcstat_ptracer04_mean       =   3.2213455341154E-04
(PID.TID 0000.0001) %MON trcstat_ptracer04_sd         =   6.8488671017796E-04
(PID.TID 0000.0001) %MON trcstat_ptracer04_del2       =   0.0000000000000E+00
(PID.TID 0000.0001) %MON trcstat_ptracer05_max        =   1.0007132623275E-03
(PID.TID 0000.0001) %MON trcstat_ptracer05_min        =   6.4626582807966E-13
(PID.TID 0000.0001) %MON trcstat_ptracer05_mean       =   6.3512047458710E-04
(PID.TID 0000.0001) %MON trcstat_ptracer05_sd         =   4.1528544093048E-04
(PID.TID 0000.0001) %MON trcstat_ptracer05_del2       =   0.0000000000000E+00
(PID.TID 0000.0001) %MON trcstat_ptracer06_max        =   5.2760212321183E-09
(PID.TID 0000.0001) %MON trcstat_ptracer06_min        =   4.6462393243071E-09
(PID.TID 0000.0001) %MON trcstat_ptracer06_mean       =   5.1057208627046E-09
(PID.TID 0000.0001) %MON trcstat_ptracer06_sd         =   1.7413970320854E-10
(PID.TID 0000.0001) %MON trcstat_ptracer06_del2       =   0.0000000000000E+00
(PID.TID 0000.0001) %MON trcstat_ptracer07_max        =   5.4883211698968E-09
(PID.TID 0000.0001) %MON trcstat_ptracer07_min        =   4.9170963099904E-09
(PID.TID 0000.0001) %MON trcstat_ptracer07_mean       =   5.3442180006825E-09
(PID.TID 0000.0001) %MON trcstat_ptracer07_sd         =   1.5619532492723E-10
(PID.TID 0000.0001) %MON trcstat_ptracer07_del2       =   0.0000000000000E+00
(PID.TID 0000.0001) %MON trcstat_ptracer08_max        =   5.6751323352199E-09
(PID.TID 0000.0001) %MON trcstat_ptracer08_min        =   5.1782547767159E-09
(PID.TID 0000.0001) %MON trcstat_ptracer08_mean       =   5.5571907037160E-09
(PID.TID 0000.0001) %MON trcstat_ptracer08_sd         =   1.3459258910699E-10
(PID.TID 0000.0001) %MON trcstat_ptracer08_del2       =   0.0000000000000E+00
(PID.TID 0000.0001) %MON trcstat_ptracer09_max        =   5.8382242720833E-09
(PID.TID 0000.0001) %MON trcstat_ptracer09_min        =   5.4211542634743E-09
(PID.TID 0000.0001) %MON trcstat_ptracer09_mean       =   5.7444203732607E-09
(PID.TID 0000.0001) %MON trcstat_ptracer09_sd         =   1.1204250365676E-10
(PID.TID 0000.0001) %MON trcstat_ptracer09_del2       =   0.0000000000000E+00
(PID.TID 0000.0001) %MON trcstat_ptracer10_max        =   5.9774117426310E-09
(PID.TID 0000.0001) %MON trcstat_ptracer10_min        =   5.6379373320549E-09
(PID.TID 0000.0001) %MON trcstat_ptracer10_mean       =   5.9047129455305E-09
(PID.TID 0000.0001) %MON trcstat_ptracer10_sd         =   9.0600950927385E-11
(PID.TID 0000.0001) %MON trcstat_ptracer10_del2       =   0.0000000000000E+00
(PID.TID 0000.0001) %MON trcstat_ptracer11_max        =   6.0943221518885E-09
(PID.TID 0000.0001) %MON trcstat_ptracer11_min        =   5.8250971085565E-09
(PID.TID 0000.0001) %MON trcstat_ptracer11_mean       =   6.0393092757808E-09
(PID.TID 0000.0001) %MON trcstat_ptracer11_sd         =   7.1303162988757E-11
(PID.TID 0000.0001) %MON trcstat_ptracer11_del2       =   0.0000000000000E+00
(PID.TID 0000.0001) %MON trcstat_ptracer12_max        =   6.1916370647878E-09
(PID.TID 0000.0001) %MON trcstat_ptracer12_min        =   5.9827872651371E-09
(PID.TID 0000.0001) %MON trcstat_ptracer12_mean       =   6.1508452205625E-09
(PID.TID 0000.0001) %MON trcstat_ptracer12_sd         =   5.4909887197294E-11
(PID.TID 0000.0001) %MON trcstat_ptracer12_del2       =   0.0000000000000E+00
(PID.TID 0000.0001) %MON trcstat_ptracer13_max        =   6.2719810474756E-09
(PID.TID 0000.0001) %MON trcstat_ptracer13_min        =   6.1131068834210E-09
(PID.TID 0000.0001) %MON trcstat_ptracer13_mean       =   6.2423269424510E-09
(PID.TID 0000.0001) %MON trcstat_ptracer13_sd         =   4.1412899717259E-11
(PID.TID 0000.0001) %MON trcstat_ptracer13_del2       =   0.0000000000000E+00
(PID.TID 0000.0001) %MON trcstat_ptracer14_max        =   6.3380684315449E-09
(PID.TID 0000.0001) %MON trcstat_ptracer14_min        =   6.2191664607480E-09
(PID.TID 0000.0001) %MON trcstat_ptracer14_mean       =   6.3166814998705E-09
(PID.TID 0000.0001) %MON trcstat_ptracer14_sd         =   3.0610585731727E-11
(PID.TID 0000.0001) %MON trcstat_ptracer14_del2       =   0.0000000000000E+00
(PID.TID 0000.0001) %MON trcstat_ptracer15_max        =   6.3919048455080E-09
(PID.TID 0000.0001) %MON trcstat_ptracer15_min        =   6.3044138240777E-09
(PID.TID 0000.0001) %MON trcstat_ptracer15_mean       =   6.3766453525054E-09
(PID.TID 0000.0001) %MON trcstat_ptracer15_sd         =   2.2131501448451E-11
(PID.TID 0000.0001) %MON trcstat_ptracer15_del2       =   0.0000000000000E+00
(PID.TID 0000.0001) %MON trcstat_ptracer16_max        =   6.4354595798320E-09
(PID.TID 0000.0001) %MON trcstat_ptracer16_min        =   6.3722129593016E-09
(PID.TID 0000.0001) %MON trcstat_ptracer16_mean       =   6.4245955566677E-09
(PID.TID 0000.0001) %MON trcstat_ptracer16_sd         =   1.5676874198550E-11
(PID.TID 0000.0001) %MON trcstat_ptracer16_del2       =   0.0000000000000E+00
(PID.TID 0000.0001) %MON trcstat_ptracer17_max        =   6.4704657017214E-09
(PID.TID 0000.0001) %MON trcstat_ptracer17_min        =   6.4256191676559E-09
(PID.TID 0000.0001) %MON trcstat_ptracer17_mean       =   6.4626511254545E-09
(PID.TID 0000.0001) %MON trcstat_ptracer17_sd         =   1.0851981669513E-11
(PID.TID 0000.0001) %MON trcstat_ptracer17_del2       =   0.0000000000000E+00
(PID.TID 0000.0001) %MON trcstat_ptracer18_max        =   6.5057460232541E-09
(PID.TID 0000.0001) %MON trcstat_ptracer18_min        =   6.4672866758625E-09
(PID.TID 0000.0001) %MON trcstat_ptracer18_mean       =   6.4925939190454E-09
(PID.TID 0000.0001) %MON trcstat_ptracer18_sd         =   7.3548937897864E-12
(PID.TID 0000.0001) %MON trcstat_ptracer18_del2       =   0.0000000000000E+00
(PID.TID 0000.0001) %MON trcstat_ptracer19_max        =   6.5337707934541E-09
(PID.TID 0000.0001) %MON trcstat_ptracer19_min        =   6.4994559644227E-09
(PID.TID 0000.0001) %MON trcstat_ptracer19_mean       =   6.5159183500296E-09
(PID.TID 0000.0001) %MON trcstat_ptracer19_sd         =   4.9550449431122E-12
(PID.TID 0000.0001) %MON trcstat_ptracer19_del2       =   0.0000000000000E+00
(PID.TID 0000.0001) %MON trcstat_ptracer20_max        =   6.5531899939640E-09
(PID.TID 0000.0001) %MON trcstat_ptracer20_min        =   6.5157220147344E-09
(PID.TID 0000.0001) %MON trcstat_ptracer20_mean       =   6.5338662860679E-09
(PID.TID 0000.0001) %MON trcstat_ptracer20_sd         =   3.5427723243674E-12
(PID.TID 0000.0001) %MON trcstat_ptracer20_del2       =   0.0000000000000E+00
(PID.TID 0000.0001) %MON trcstat_ptracer21_max        =   6.6017831294850E-09
(PID.TID 0000.0001) %MON trcstat_ptracer21_min        =   6.5913579957787E-09
(PID.TID 0000.0001) %MON trcstat_ptracer21_mean       =   6.6003361408631E-09
(PID.TID 0000.0001) %MON trcstat_ptracer21_sd         =   2.8536519024764E-12
(PID.TID 0000.0001) %MON trcstat_ptracer21_del2       =   0.0000000000000E+00
(PID.TID 0000.0001) %MON trcstat_ptracer22_max        =   1.3260358532321E-09
(PID.TID 0000.0001) %MON trcstat_ptracer22_min        =   1.0456802236882E-09
(PID.TID 0000.0001) %MON trcstat_ptracer22_mean       =   1.1194351657478E-09
(PID.TID 0000.0001) %MON trcstat_ptracer22_sd         =   7.6390256590452E-11
(PID.TID 0000.0001) %MON trcstat_ptracer22_del2       =   0.0000000000000E+00
(PID.TID 0000.0001) %MON trcstat_ptracer23_max        =   1.2087093524696E-09
(PID.TID 0000.0001) %MON trcstat_ptracer23_min        =   9.5456437471552E-10
(PID.TID 0000.0001) %MON trcstat_ptracer23_mean       =   1.0170739595162E-09
(PID.TID 0000.0001) %MON trcstat_ptracer23_sd         =   6.8727510247666E-11
(PID.TID 0000.0001) %MON trcstat_ptracer23_del2       =   0.0000000000000E+00
(PID.TID 0000.0001) %MON trcstat_ptracer24_max        =   1.0951994606005E-09
(PID.TID 0000.0001) %MON trcstat_ptracer24_min        =   8.7438791435124E-10
(PID.TID 0000.0001) %MON trcstat_ptracer24_mean       =   9.2563865482467E-10
(PID.TID 0000.0001) %MON trcstat_ptracer24_sd         =   5.9401924094829E-11
(PID.TID 0000.0001) %MON trcstat_ptracer24_del2       =   0.0000000000000E+00
(PID.TID 0000.0001) %MON trcstat_ptracer25_max        =   9.8995368554472E-10
(PID.TID 0000.0001) %MON trcstat_ptracer25_min        =   8.0439138205285E-10
(PID.TID 0000.0001) %MON trcstat_ptracer25_mean       =   8.4527798560065E-10
(PID.TID 0000.0001) %MON trcstat_ptracer25_sd         =   4.9718941208973E-11
(PID.TID 0000.0001) %MON trcstat_ptracer25_del2       =   0.0000000000000E+00
(PID.TID 0000.0001) %MON trcstat_ptracer26_max        =   8.9567675998288E-10
(PID.TID 0000.0001) %MON trcstat_ptracer26_min        =   7.4465427957019E-10
(PID.TID 0000.0001) %MON trcstat_ptracer26_mean       =   7.7643402680455E-10
(PID.TID 0000.0001) %MON trcstat_ptracer26_sd         =   4.0382688114482E-11
(PID.TID 0000.0001) %MON trcstat_ptracer26_del2       =   0.0000000000000E+00
(PID.TID 0000.0001) %MON trcstat_ptracer27_max        =   8.1430174490697E-10
(PID.TID 0000.0001) %MON trcstat_ptracer27_min        =   6.9447815049746E-10
(PID.TID 0000.0001) %MON trcstat_ptracer27_mean       =   7.1863885716009E-10
(PID.TID 0000.0001) %MON trcstat_ptracer27_sd         =   3.2001083704526E-11
(PID.TID 0000.0001) %MON trcstat_ptracer27_del2       =   0.0000000000000E+00
(PID.TID 0000.0001) %MON trcstat_ptracer28_max        =   7.4564602525331E-10
(PID.TID 0000.0001) %MON trcstat_ptracer28_min        =   6.5271210949753E-10
(PID.TID 0000.0001) %MON trcstat_ptracer28_mean       =   6.7072979436029E-10
(PID.TID 0000.0001) %MON trcstat_ptracer28_sd         =   2.4825791634646E-11
(PID.TID 0000.0001) %MON trcstat_ptracer28_del2       =   0.0000000000000E+00
(PID.TID 0000.0001) %MON trcstat_ptracer29_max        =   6.8889311414065E-10
(PID.TID 0000.0001) %MON trcstat_ptracer29_min        =   6.1822973451045E-10
(PID.TID 0000.0001) %MON trcstat_ptracer29_mean       =   6.3143581367132E-10
(PID.TID 0000.0001) %MON trcstat_ptracer29_sd         =   1.8898949361698E-11
(PID.TID 0000.0001) %MON trcstat_ptracer29_del2       =   0.0000000000000E+00
(PID.TID 0000.0001) %MON trcstat_ptracer30_max        =   6.4268356384049E-10
(PID.TID 0000.0001) %MON trcstat_ptracer30_min        =   5.8997881370092E-10
(PID.TID 0000.0001) %MON trcstat_ptracer30_mean       =   5.9949923217437E-10
(PID.TID 0000.0001) %MON trcstat_ptracer30_sd         =   1.4127897695397E-11
(PID.TID 0000.0001) %MON trcstat_ptracer30_del2       =   0.0000000000000E+00
(PID.TID 0000.0001) %MON trcstat_ptracer31_max        =   6.0552572764075E-10
(PID.TID 0000.0001) %MON trcstat_ptracer31_min        =   5.6700691727464E-10
(PID.TID 0000.0001) %MON trcstat_ptracer31_mean       =   5.7375332955595E-10
(PID.TID 0000.0001) %MON trcstat_ptracer31_sd         =   1.0361049622432E-11
(PID.TID 0000.0001) %MON trcstat_ptracer31_del2       =   0.0000000000000E+00
(PID.TID 0000.0001) %MON trcstat_ptracer32_max        =   5.7594681858277E-10
(PID.TID 0000.0001) %MON trcstat_ptracer32_min        =   5.4847105010558E-10
(PID.TID 0000.0001) %MON trcstat_ptracer32_mean       =   5.5315786961821E-10
(PID.TID 0000.0001) %MON trcstat_ptracer32_sd         =   7.4281402202387E-12
(PID.TID 0000.0001) %MON trcstat_ptracer32_del2       =   0.0000000000000E+00
(PID.TID 0000.0001) %MON trcstat_ptracer33_max        =   5.5272275592641E-10
(PID.TID 0000.0001) %MON trcstat_ptracer33_min        =   5.3363735924122E-10
(PID.TID 0000.0001) %MON trcstat_ptracer33_mean       =   5.3681256956067E-10
(PID.TID 0000.0001) %MON trcstat_ptracer33_sd         =   5.1710645425806E-12
(PID.TID 0000.0001) %MON trcstat_ptracer33_del2       =   0.0000000000000E+00
(PID.TID 0000.0001) %MON trcstat_ptracer34_max        =   5.3466918703526E-10
(PID.TID 0000.0001) %MON trcstat_ptracer34_min        =   5.2187502680554E-10
(PID.TID 0000.0001) %MON trcstat_ptracer34_mean       =   5.2395192039530E-10
(PID.TID 0000.0001) %MON trcstat_ptracer34_sd         =   3.4509607856050E-12
(PID.TID 0000.0001) %MON trcstat_ptracer34_del2       =   0.0000000000000E+00
(PID.TID 0000.0001) %MON trcstat_ptracer35_max        =   5.2078034697997E-10
(PID.TID 0000.0001) %MON trcstat_ptracer35_min        =   5.1264710074769E-10
(PID.TID 0000.0001) %MON trcstat_ptracer35_mean       =   5.1393394111436E-10
(PID.TID 0000.0001) %MON trcstat_ptracer35_sd         =   2.1541595552294E-12
(PID.TID 0000.0001) %MON trcstat_ptracer35_del2       =   0.0000000000000E+00
(PID.TID 0000.0001) %MON trcstat_ptracer36_max        =   5.1018875559122E-10
(PID.TID 0000.0001) %MON trcstat_ptracer36_min        =   5.0532079800386E-10
(PID.TID 0000.0001) %MON trcstat_ptracer36_mean       =   5.0622516400732E-10
(PID.TID 0000.0001) %MON trcstat_ptracer36_sd         =   1.1981552595258E-12
(PID.TID 0000.0001) %MON trcstat_ptracer36_del2       =   0.0000000000000E+00
(PID.TID 0000.0001) %MON trcstat_ptracer37_max        =   4.9824776143949E-10
(PID.TID 0000.0001) %MON trcstat_ptracer37_min        =   4.9746095893024E-10
(PID.TID 0000.0001) %MON trcstat_ptracer37_mean       =   4.9813855475585E-10
(PID.TID 0000.0001) %MON trcstat_ptracer37_sd         =   2.1536994542494E-13
(PID.TID 0000.0001) %MON trcstat_ptracer37_del2       =   0.0000000000000E+00
(PID.TID 0000.0001) %MON trcstat_ptracer38_max        =   5.9230785733831E-14
(PID.TID 0000.0001) %MON trcstat_ptracer38_min        =   2.9701740727968E-14
(PID.TID 0000.0001) %MON trcstat_ptracer38_mean       =   4.6540341117250E-14
(PID.TID 0000.0001) %MON trcstat_ptracer38_sd         =   1.0833423037117E-14
(PID.TID 0000.0001) %MON trcstat_ptracer38_del2       =   0.0000000000000E+00
(PID.TID 0000.0001) %MON trcstat_ptracer39_max        =   5.5096821890519E-14
(PID.TID 0000.0001) %MON trcstat_ptracer39_min        =   2.9701790378840E-14
(PID.TID 0000.0001) %MON trcstat_ptracer39_mean       =   4.3984139911112E-14
(PID.TID 0000.0001) %MON trcstat_ptracer39_sd         =   9.2108656704144E-15
(PID.TID 0000.0001) %MON trcstat_ptracer39_del2       =   0.0000000000000E+00
(PID.TID 0000.0001) %MON trcstat_ptracer40_max        =   5.1336411147852E-14
(PID.TID 0000.0001) %MON trcstat_ptracer40_min        =   2.9701722111698E-14
(PID.TID 0000.0001) %MON trcstat_ptracer40_mean       =   4.1724512930382E-14
(PID.TID 0000.0001) %MON trcstat_ptracer40_sd         =   7.7712059643304E-15
(PID.TID 0000.0001) %MON trcstat_ptracer40_del2       =   0.0000000000000E+00
(PID.TID 0000.0001) %MON trcstat_ptracer41_max        =   4.7978335405810E-14
(PID.TID 0000.0001) %MON trcstat_ptracer41_min        =   2.9701676950330E-14
(PID.TID 0000.0001) %MON trcstat_ptracer41_mean       =   3.9752375893840E-14
(PID.TID 0000.0001) %MON trcstat_ptracer41_sd         =   6.5101431108500E-15
(PID.TID 0000.0001) %MON trcstat_ptracer41_del2       =   0.0000000000000E+00
(PID.TID 0000.0001) %MON trcstat_ptracer42_max        =   4.5002110443334E-14
(PID.TID 0000.0001) %MON trcstat_ptracer42_min        =   2.9701648201746E-14
(PID.TID 0000.0001) %MON trcstat_ptracer42_mean       =   3.8045096866331E-14
(PID.TID 0000.0001) %MON trcstat_ptracer42_sd         =   5.4146017581819E-15
(PID.TID 0000.0001) %MON trcstat_ptracer42_del2       =   0.0000000000000E+00
(PID.TID 0000.0001) %MON trcstat_ptracer43_max        =   4.2404008799112E-14
(PID.TID 0000.0001) %MON trcstat_ptracer43_min        =   2.9701630980861E-14
(PID.TID 0000.0001) %MON trcstat_ptracer43_mean       =   3.6580265457844E-14
(PID.TID 0000.0001) %MON trcstat_ptracer43_sd         =   4.4716996702296E-15
(PID.TID 0000.0001) %MON trcstat_ptracer43_del2       =   0.0000000000000E+00
(PID.TID 0000.0001) %MON trcstat_ptracer44_max        =   4.0160598990206E-14
(PID.TID 0000.0001) %MON trcstat_ptracer44_min        =   2.9701621694272E-14
(PID.TID 0000.0001) %MON trcstat_ptracer44_mean       =   3.5334551961916E-14
(PID.TID 0000.0001) %MON trcstat_ptracer44_sd         =   3.6676283253922E-15
(PID.TID 0000.0001) %MON trcstat_ptracer44_del2       =   0.0000000000000E+00
(PID.TID 0000.0001) %MON trcstat_ptracer45_max        =   3.8245588912654E-14
(PID.TID 0000.0001) %MON trcstat_ptracer45_min        =   2.9701617660519E-14
(PID.TID 0000.0001) %MON trcstat_ptracer45_mean       =   3.4283584500250E-14
(PID.TID 0000.0001) %MON trcstat_ptracer45_sd         =   2.9876506242652E-15
(PID.TID 0000.0001) %MON trcstat_ptracer45_del2       =   0.0000000000000E+00
(PID.TID 0000.0001) %MON trcstat_ptracer46_max        =   3.6625968176846E-14
(PID.TID 0000.0001) %MON trcstat_ptracer46_min        =   2.9701616872709E-14
(PID.TID 0000.0001) %MON trcstat_ptracer46_mean       =   3.3403344412648E-14
(PID.TID 0000.0001) %MON trcstat_ptracer46_sd         =   2.4169255730091E-15
(PID.TID 0000.0001) %MON trcstat_ptracer46_del2       =   0.0000000000000E+00
(PID.TID 0000.0001) %MON trcstat_ptracer47_max        =   3.5269943449236E-14
(PID.TID 0000.0001) %MON trcstat_ptracer47_min        =   2.9701617824378E-14
(PID.TID 0000.0001) %MON trcstat_ptracer47_mean       =   3.2671198368057E-14
(PID.TID 0000.0001) %MON trcstat_ptracer47_sd         =   1.9412729215702E-15
(PID.TID 0000.0001) %MON trcstat_ptracer47_del2       =   0.0000000000000E+00
(PID.TID 0000.0001) %MON trcstat_ptracer48_max        =   3.4144211068676E-14
(PID.TID 0000.0001) %MON trcstat_ptracer48_min        =   2.9701619387549E-14
(PID.TID 0000.0001) %MON trcstat_ptracer48_mean       =   3.2066386995662E-14
(PID.TID 0000.0001) %MON trcstat_ptracer48_sd         =   1.5475288251769E-15
(PID.TID 0000.0001) %MON trcstat_ptracer48_del2       =   0.0000000000000E+00
(PID.TID 0000.0001) %MON trcstat_ptracer49_max        =   3.3218372244282E-14
(PID.TID 0000.0001) %MON trcstat_ptracer49_min        =   2.9701620731569E-14
(PID.TID 0000.0001) %MON trcstat_ptracer49_mean       =   3.1570288564174E-14
(PID.TID 0000.0001) %MON trcstat_ptracer49_sd         =   1.2238101378530E-15
(PID.TID 0000.0001) %MON trcstat_ptracer49_del2       =   0.0000000000000E+00
(PID.TID 0000.0001) %MON trcstat_ptracer50_max        =   3.2464828126175E-14
(PID.TID 0000.0001) %MON trcstat_ptracer50_min        =   2.9701621271696E-14
(PID.TID 0000.0001) %MON trcstat_ptracer50_mean       =   3.1166382119147E-14
(PID.TID 0000.0001) %MON trcstat_ptracer50_sd         =   9.5950567876569E-16
(PID.TID 0000.0001) %MON trcstat_ptracer50_del2       =   0.0000000000000E+00
(PID.TID 0000.0001) %MON trcstat_ptracer51_max        =   3.1854599936537E-14
(PID.TID 0000.0001) %MON trcstat_ptracer51_min        =   2.9701620637354E-14
(PID.TID 0000.0001) %MON trcstat_ptracer51_mean       =   3.0840146493074E-14
(PID.TID 0000.0001) %MON trcstat_ptracer51_sd         =   7.4525210043310E-16
(PID.TID 0000.0001) %MON trcstat_ptracer51_del2       =   0.0000000000000E+00
(PID.TID 0000.0001) %MON trcstat_ptracer52_max        =   3.1364211186127E-14
(PID.TID 0000.0001) %MON trcstat_ptracer52_min        =   2.9701618651396E-14
(PID.TID 0000.0001) %MON trcstat_ptracer52_mean       =   3.0578893983852E-14
(PID.TID 0000.0001) %MON trcstat_ptracer52_sd         =   5.7285763594772E-16
(PID.TID 0000.0001) %MON trcstat_ptracer52_del2       =   0.0000000000000E+00
(PID.TID 0000.0001) %MON trcstat_ptracer53_max        =   2.9894866007248E-14
(PID.TID 0000.0001) %MON trcstat_ptracer53_min        =   2.9847657856187E-14
(PID.TID 0000.0001) %MON trcstat_ptracer53_mean       =   2.9888313606160E-14
(PID.TID 0000.0001) %MON trcstat_ptracer53_sd         =   1.2922196864233E-17
(PID.TID 0000.0001) %MON trcstat_ptracer53_del2       =   0.0000000000000E+00
(PID.TID 0000.0001) %MON trcstat_ptracer54_max        =   2.4281498079325E-09
(PID.TID 0000.0001) %MON trcstat_ptracer54_min        =   9.9004567825650E-10
(PID.TID 0000.0001) %MON trcstat_ptracer54_mean       =   1.0379231359551E-09
(PID.TID 0000.0001) %MON trcstat_ptracer54_sd         =   2.5391153012917E-10
(PID.TID 0000.0001) %MON trcstat_ptracer54_del2       =   0.0000000000000E+00
(PID.TID 0000.0001) %MON trcstat_ptracer55_max        =   2.4421846396956E-09
(PID.TID 0000.0001) %MON trcstat_ptracer55_min        =   9.9004567825650E-10
(PID.TID 0000.0001) %MON trcstat_ptracer55_mean       =   1.0371776862303E-09
(PID.TID 0000.0001) %MON trcstat_ptracer55_sd         =   2.5007270292481E-10
(PID.TID 0000.0001) %MON trcstat_ptracer55_del2       =   0.0000000000000E+00
(PID.TID 0000.0001) %MON trcstat_ptracer56_max        =   2.2077560221780E-09
(PID.TID 0000.0001) %MON trcstat_ptracer56_min        =   9.9004567825650E-10
(PID.TID 0000.0001) %MON trcstat_ptracer56_mean       =   1.0306199444597E-09
(PID.TID 0000.0001) %MON trcstat_ptracer56_sd         =   2.1516470833003E-10
(PID.TID 0000.0001) %MON trcstat_ptracer56_del2       =   0.0000000000000E+00
(PID.TID 0000.0001) %MON trcstat_ptracer57_max        =   2.1061754465250E-09
(PID.TID 0000.0001) %MON trcstat_ptracer57_min        =   9.9004567825650E-10
(PID.TID 0000.0001) %MON trcstat_ptracer57_mean       =   1.0269003906808E-09
(PID.TID 0000.0001) %MON trcstat_ptracer57_sd         =   1.9545545470299E-10
(PID.TID 0000.0001) %MON trcstat_ptracer57_del2       =   0.0000000000000E+00
(PID.TID 0000.0001) %MON trcstat_ptracer58_max        =   1.8832359490682E-09
(PID.TID 0000.0001) %MON trcstat_ptracer58_min        =   9.9004567825650E-10
(PID.TID 0000.0001) %MON trcstat_ptracer58_mean       =   1.0198249704627E-09
(PID.TID 0000.0001) %MON trcstat_ptracer58_sd         =   1.5789720527401E-10
(PID.TID 0000.0001) %MON trcstat_ptracer58_del2       =   0.0000000000000E+00
(PID.TID 0000.0001) %MON trcstat_ptracer59_max        =   1.6942529648572E-09
(PID.TID 0000.0001) %MON trcstat_ptracer59_min        =   9.9004567825650E-10
(PID.TID 0000.0001) %MON trcstat_ptracer59_mean       =   1.0138425757704E-09
(PID.TID 0000.0001) %MON trcstat_ptracer59_sd         =   1.2614091101329E-10
(PID.TID 0000.0001) %MON trcstat_ptracer59_del2       =   0.0000000000000E+00
(PID.TID 0000.0001) %MON trcstat_ptracer60_max        =   1.5364503482142E-09
(PID.TID 0000.0001) %MON trcstat_ptracer60_min        =   9.9004567825650E-10
(PID.TID 0000.0001) %MON trcstat_ptracer60_mean       =   1.0085379967402E-09
(PID.TID 0000.0001) %MON trcstat_ptracer60_sd         =   9.7999445933167E-11
(PID.TID 0000.0001) %MON trcstat_ptracer60_del2       =   0.0000000000000E+00
(PID.TID 0000.0001) %MON trcstat_ptracer61_max        =   1.4082039649360E-09
(PID.TID 0000.0001) %MON trcstat_ptracer61_min        =   9.9004567825650E-10
(PID.TID 0000.0001) %MON trcstat_ptracer61_mean       =   1.0042137966707E-09
(PID.TID 0000.0001) %MON trcstat_ptracer61_sd         =   7.5053781813063E-11
(PID.TID 0000.0001) %MON trcstat_ptracer61_del2       =   0.0000000000000E+00
(PID.TID 0000.0001) %MON trcstat_ptracer62_max        =   1.3055269973611E-09
(PID.TID 0000.0001) %MON trcstat_ptracer62_min        =   9.9004567825650E-10
(PID.TID 0000.0001) %MON trcstat_ptracer62_mean       =   1.0007449979330E-09
(PID.TID 0000.0001) %MON trcstat_ptracer62_sd         =   5.6639832227548E-11
(PID.TID 0000.0001) %MON trcstat_ptracer62_del2       =   0.0000000000000E+00
(PID.TID 0000.0001) %MON trcstat_ptracer63_max        =   1.2244785000414E-09
(PID.TID 0000.0001) %MON trcstat_ptracer63_min        =   9.9004567825650E-10
(PID.TID 0000.0001) %MON trcstat_ptracer63_mean       =   9.9806004528352E-10
(PID.TID 0000.0001) %MON trcstat_ptracer63_sd         =   4.2374715309473E-11
(PID.TID 0000.0001) %MON trcstat_ptracer63_del2       =   0.0000000000000E+00
(PID.TID 0000.0001) %MON trcstat_ptracer64_max        =   1.1606947832322E-09
(PID.TID 0000.0001) %MON trcstat_ptracer64_min        =   9.9004567825650E-10
(PID.TID 0000.0001) %MON trcstat_ptracer64_mean       =   9.9588237022654E-10
(PID.TID 0000.0001) %MON trcstat_ptracer64_sd         =   3.0794219208638E-11
(PID.TID 0000.0001) %MON trcstat_ptracer64_del2       =   0.0000000000000E+00
(PID.TID 0000.0001) %MON trcstat_ptracer65_max        =   1.1110904315596E-09
(PID.TID 0000.0001) %MON trcstat_ptracer65_min        =   9.9004567825650E-10
(PID.TID 0000.0001) %MON trcstat_ptracer65_mean       =   9.9418807791481E-10
(PID.TID 0000.0001) %MON trcstat_ptracer65_sd         =   2.1766947158147E-11
(PID.TID 0000.0001) %MON trcstat_ptracer65_del2       =   0.0000000000000E+00
(PID.TID 0000.0001) %MON trcstat_ptracer66_max        =   1.0728209057903E-09
(PID.TID 0000.0001) %MON trcstat_ptracer66_min        =   9.9004567825650E-10
(PID.TID 0000.0001) %MON trcstat_ptracer66_mean       =   9.9288051612089E-10
(PID.TID 0000.0001) %MON trcstat_ptracer66_sd         =   1.4777849235159E-11
(PID.TID 0000.0001) %MON trcstat_ptracer66_del2       =   0.0000000000000E+00
(PID.TID 0000.0001) %MON trcstat_ptracer67_max        =   1.0435581034589E-09
(PID.TID 0000.0001) %MON trcstat_ptracer67_min        =   9.9004567825650E-10
(PID.TID 0000.0001) %MON trcstat_ptracer67_mean       =   9.9188047465402E-10
(PID.TID 0000.0001) %MON trcstat_ptracer67_sd         =   9.4047831115954E-12
(PID.TID 0000.0001) %MON trcstat_ptracer67_del2       =   0.0000000000000E+00
(PID.TID 0000.0001) %MON trcstat_ptracer68_max        =   1.0214262662493E-09
(PID.TID 0000.0001) %MON trcstat_ptracer68_min        =   9.9004567825650E-10
(PID.TID 0000.0001) %MON trcstat_ptracer68_mean       =   9.9112407373834E-10
(PID.TID 0000.0001) %MON trcstat_ptracer68_sd         =   5.3114341370688E-12
(PID.TID 0000.0001) %MON trcstat_ptracer68_del2       =   0.0000000000000E+00
(PID.TID 0000.0001) %MON trcstat_ptracer69_max        =   1.5777156539476E-09
(PID.TID 0000.0001) %MON trcstat_ptracer69_min        =   1.5651739055520E-09
(PID.TID 0000.0001) %MON trcstat_ptracer69_mean       =   1.5749203095074E-09
(PID.TID 0000.0001) %MON trcstat_ptracer69_sd         =   3.3796724618653E-12
(PID.TID 0000.0001) %MON trcstat_ptracer69_del2       =   0.0000000000000E+00
(PID.TID 0000.0001) %MON trcstat_ptracer70_max        =   3.9877173220052E-10
(PID.TID 0000.0001) %MON trcstat_ptracer70_min        =   3.4872740057187E-10
(PID.TID 0000.0001) %MON trcstat_ptracer70_mean       =   3.9640026038067E-10
(PID.TID 0000.0001) %MON trcstat_ptracer70_sd         =   2.8674881253976E-12
(PID.TID 0000.0001) %MON trcstat_ptracer70_del2       =   0.0000000000000E+00
(PID.TID 0000.0001) %MON trcstat_ptracer71_max        =   6.2670755689641E-11
(PID.TID 0000.0001) %MON trcstat_ptracer71_min        =   5.5445408788045E-11
(PID.TID 0000.0001) %MON trcstat_ptracer71_mean       =   5.6899936171844E-11
(PID.TID 0000.0001) %MON trcstat_ptracer71_sd         =   1.9537715999167E-12
(PID.TID 0000.0001) %MON trcstat_ptracer71_del2       =   0.0000000000000E+00
(PID.TID 0000.0001) %MON trcstat_ptracer72_max        =   2.6989892838495E-01
(PID.TID 0000.0001) %MON trcstat_ptracer72_min        =   3.4538495210801E-11
(PID.TID 0000.0001) %MON trcstat_ptracer72_mean       =   3.2752485673661E-02
(PID.TID 0000.0001) %MON trcstat_ptracer72_sd         =   8.2111011070020E-02
(PID.TID 0000.0001) %MON trcstat_ptracer72_del2       =   0.0000000000000E+00
(PID.TID 0000.0001) %MON trcstat_ptracer73_max        =   3.0258736997175E-02
(PID.TID 0000.0001) %MON trcstat_ptracer73_min        =   1.5139858683368E-11
(PID.TID 0000.0001) %MON trcstat_ptracer73_mean       =   1.4883963119524E-02
(PID.TID 0000.0001) %MON trcstat_ptracer73_sd         =   1.1078614560946E-02
(PID.TID 0000.0001) %MON trcstat_ptracer73_del2       =   0.0000000000000E+00
(PID.TID 0000.0001) %MON trcstat_ptracer74_max        =   1.6868683004413E-05
(PID.TID 0000.0001) %MON trcstat_ptracer74_min        =   1.8388678557429E-15
(PID.TID 0000.0001) %MON trcstat_ptracer74_mean       =   2.0470303531831E-06
(PID.TID 0000.0001) %MON trcstat_ptracer74_sd         =   5.1319381857822E-06
(PID.TID 0000.0001) %MON trcstat_ptracer74_del2       =   0.0000000000000E+00
(PID.TID 0000.0001) %MON trcstat_ptracer75_max        =   1.8979385369499E-06
(PID.TID 0000.0001) %MON trcstat_ptracer75_min        =   9.4940070499826E-16
(PID.TID 0000.0001) %MON trcstat_ptracer75_mean       =   9.3370607446663E-07
(PID.TID 0000.0001) %MON trcstat_ptracer75_sd         =   6.9486201691863E-07
(PID.TID 0000.0001) %MON trcstat_ptracer75_del2       =   0.0000000000000E+00
(PID.TID 0000.0001) // =======================================================
(PID.TID 0000.0001) // End MONITOR ptracers field statistics
(PID.TID 0000.0001) // =======================================================
(PID.TID 0000.0001) %CHECKPOINT         4 ckptA
(PID.TID 0000.0001)   Seconds in section "ALL                    [THE_MODEL_MAIN]":
(PID.TID 0000.0001)           User time:   1.5500000000000000
(PID.TID 0000.0001)         System time:  5.00000000000000028E-002
(PID.TID 0000.0001)     Wall clock time:   1.6003971099853516
(PID.TID 0000.0001)          No. starts:           1
(PID.TID 0000.0001)           No. stops:           1
(PID.TID 0000.0001)   Seconds in section "INITIALISE_FIXED       [THE_MODEL_MAIN]":
(PID.TID 0000.0001)           User time:   1.1499999999999999
(PID.TID 0000.0001)         System time:  5.00000000000000028E-002
(PID.TID 0000.0001)     Wall clock time:   1.2032520771026611
(PID.TID 0000.0001)          No. starts:           1
(PID.TID 0000.0001)           No. stops:           1
(PID.TID 0000.0001)   Seconds in section "THE_MAIN_LOOP          [THE_MODEL_MAIN]":
(PID.TID 0000.0001)           User time:  0.39000000000000012
(PID.TID 0000.0001)         System time:   0.0000000000000000
(PID.TID 0000.0001)     Wall clock time:  0.39409899711608887
(PID.TID 0000.0001)          No. starts:           1
(PID.TID 0000.0001)           No. stops:           1
(PID.TID 0000.0001)   Seconds in section "INITIALISE_VARIA    [THE_MAIN_LOOP]":
(PID.TID 0000.0001)           User time:  7.00000000000000622E-002
(PID.TID 0000.0001)         System time:   0.0000000000000000
(PID.TID 0000.0001)     Wall clock time:  6.78131580352783203E-002
(PID.TID 0000.0001)          No. starts:           1
(PID.TID 0000.0001)           No. stops:           1
(PID.TID 0000.0001)   Seconds in section "MAIN LOOP           [THE_MAIN_LOOP]":
(PID.TID 0000.0001)           User time:  0.32000000000000006
(PID.TID 0000.0001)         System time:   0.0000000000000000
(PID.TID 0000.0001)     Wall clock time:  0.32625198364257813
(PID.TID 0000.0001)          No. starts:           1
(PID.TID 0000.0001)           No. stops:           1
(PID.TID 0000.0001)   Seconds in section "FORWARD_STEP        [THE_MAIN_LOOP]":
(PID.TID 0000.0001)           User time:  0.32000000000000006
(PID.TID 0000.0001)         System time:   0.0000000000000000
(PID.TID 0000.0001)     Wall clock time:  0.32619810104370117
(PID.TID 0000.0001)          No. starts:           4
(PID.TID 0000.0001)           No. stops:           4
(PID.TID 0000.0001)   Seconds in section "LOAD_FIELDS_DRIVER  [FORWARD_STEP]":
(PID.TID 0000.0001)           User time:   0.0000000000000000
(PID.TID 0000.0001)         System time:   0.0000000000000000
(PID.TID 0000.0001)     Wall clock time:  6.58750534057617188E-004
(PID.TID 0000.0001)          No. starts:           4
(PID.TID 0000.0001)           No. stops:           4
(PID.TID 0000.0001)   Seconds in section "EXTERNAL_FLDS_LOAD [LOAD_FLDS_DRIVER]":
(PID.TID 0000.0001)           User time:   0.0000000000000000
(PID.TID 0000.0001)         System time:   0.0000000000000000
(PID.TID 0000.0001)     Wall clock time:  3.49998474121093750E-004
(PID.TID 0000.0001)          No. starts:           4
(PID.TID 0000.0001)           No. stops:           4
(PID.TID 0000.0001)   Seconds in section "DO_ATMOSPHERIC_PHYS [FORWARD_STEP]":
(PID.TID 0000.0001)           User time:   0.0000000000000000
(PID.TID 0000.0001)         System time:   0.0000000000000000
(PID.TID 0000.0001)     Wall clock time:  4.17232513427734375E-005
(PID.TID 0000.0001)          No. starts:           4
(PID.TID 0000.0001)           No. stops:           4
(PID.TID 0000.0001)   Seconds in section "DO_OCEANIC_PHYS     [FORWARD_STEP]":
(PID.TID 0000.0001)           User time:  1.00000000000000089E-002
(PID.TID 0000.0001)         System time:   0.0000000000000000
(PID.TID 0000.0001)     Wall clock time:  6.12211227416992188E-003
(PID.TID 0000.0001)          No. starts:           4
(PID.TID 0000.0001)           No. stops:           4
(PID.TID 0000.0001)   Seconds in section "KPP_CALC [DO_OCEANIC_PHYS]":
(PID.TID 0000.0001)           User time:  1.00000000000000089E-002
(PID.TID 0000.0001)         System time:   0.0000000000000000
(PID.TID 0000.0001)     Wall clock time:  5.28073310852050781E-003
(PID.TID 0000.0001)          No. starts:           4
(PID.TID 0000.0001)           No. stops:           4
(PID.TID 0000.0001)   Seconds in section "GCHEM_CALC_TENDENCY [FORWARD_STEP]":
(PID.TID 0000.0001)           User time:   0.0000000000000000
(PID.TID 0000.0001)         System time:   0.0000000000000000
(PID.TID 0000.0001)     Wall clock time:  4.19616699218750000E-005
(PID.TID 0000.0001)          No. starts:           4
(PID.TID 0000.0001)           No. stops:           4
(PID.TID 0000.0001)   Seconds in section "THERMODYNAMICS      [FORWARD_STEP]":
(PID.TID 0000.0001)           User time:  0.19999999999999996
(PID.TID 0000.0001)         System time:   0.0000000000000000
(PID.TID 0000.0001)     Wall clock time:  0.20195698738098145
(PID.TID 0000.0001)          No. starts:           4
(PID.TID 0000.0001)           No. stops:           4
(PID.TID 0000.0001)   Seconds in section "TRC_CORRECTION_STEP [FORWARD_STEP]":
(PID.TID 0000.0001)           User time:  1.00000000000000089E-002
(PID.TID 0000.0001)         System time:   0.0000000000000000
(PID.TID 0000.0001)     Wall clock time:  3.38196754455566406E-003
(PID.TID 0000.0001)          No. starts:           4
(PID.TID 0000.0001)           No. stops:           4
(PID.TID 0000.0001)   Seconds in section "GCHEM_FORCING_SEP  [FORWARD_STEP]":
(PID.TID 0000.0001)           User time:  1.00000000000000089E-002
(PID.TID 0000.0001)         System time:   0.0000000000000000
(PID.TID 0000.0001)     Wall clock time:  2.47187614440917969E-002
(PID.TID 0000.0001)          No. starts:           4
(PID.TID 0000.0001)           No. stops:           4
(PID.TID 0000.0001)   Seconds in section "BLOCKING_EXCHANGES  [FORWARD_STEP]":
(PID.TID 0000.0001)           User time:  2.00000000000000178E-002
(PID.TID 0000.0001)         System time:   0.0000000000000000
(PID.TID 0000.0001)     Wall clock time:  1.21130943298339844E-002
(PID.TID 0000.0001)          No. starts:           4
(PID.TID 0000.0001)           No. stops:           4
(PID.TID 0000.0001)   Seconds in section "DO_STATEVARS_TAVE   [FORWARD_STEP]":
(PID.TID 0000.0001)           User time:  1.00000000000000089E-002
(PID.TID 0000.0001)         System time:   0.0000000000000000
(PID.TID 0000.0001)     Wall clock time:  9.07182693481445313E-004
(PID.TID 0000.0001)          No. starts:           4
(PID.TID 0000.0001)           No. stops:           4
(PID.TID 0000.0001)   Seconds in section "MONITOR             [FORWARD_STEP]":
(PID.TID 0000.0001)           User time:   0.0000000000000000
(PID.TID 0000.0001)         System time:   0.0000000000000000
(PID.TID 0000.0001)     Wall clock time:  3.73649597167968750E-003
(PID.TID 0000.0001)          No. starts:           4
(PID.TID 0000.0001)           No. stops:           4
(PID.TID 0000.0001)   Seconds in section "DO_THE_MODEL_IO     [FORWARD_STEP]":
(PID.TID 0000.0001)           User time:  6.00000000000000533E-002
(PID.TID 0000.0001)         System time:   0.0000000000000000
(PID.TID 0000.0001)     Wall clock time:  6.87389373779296875E-002
(PID.TID 0000.0001)          No. starts:           4
(PID.TID 0000.0001)           No. stops:           4
(PID.TID 0000.0001)   Seconds in section "DO_WRITE_PICKUP     [FORWARD_STEP]":
(PID.TID 0000.0001)           User time:   0.0000000000000000
(PID.TID 0000.0001)         System time:   0.0000000000000000
(PID.TID 0000.0001)     Wall clock time:  3.20196151733398438E-003
(PID.TID 0000.0001)          No. starts:           4
(PID.TID 0000.0001)           No. stops:           4
(PID.TID 0000.0001) // ======================================================
(PID.TID 0000.0001) // Tile <-> Tile communication statistics
(PID.TID 0000.0001) // ======================================================
(PID.TID 0000.0001) // o Tile number: 000001
(PID.TID 0000.0001) //         No. X exchanges =              0
(PID.TID 0000.0001) //            Max. X spins =              0
(PID.TID 0000.0001) //            Min. X spins =     1000000000
(PID.TID 0000.0001) //          Total. X spins =              0
(PID.TID 0000.0001) //            Avg. X spins =       0.00E+00
(PID.TID 0000.0001) //         No. Y exchanges =              0
(PID.TID 0000.0001) //            Max. Y spins =              0
(PID.TID 0000.0001) //            Min. Y spins =     1000000000
(PID.TID 0000.0001) //          Total. Y spins =              0
(PID.TID 0000.0001) //            Avg. Y spins =       0.00E+00
(PID.TID 0000.0001) // o Thread number: 000001
(PID.TID 0000.0001) //            No. barriers =          16866
(PID.TID 0000.0001) //      Max. barrier spins =              1
(PID.TID 0000.0001) //      Min. barrier spins =              1
(PID.TID 0000.0001) //     Total barrier spins =          16866
(PID.TID 0000.0001) //      Avg. barrier spins =       1.00E+00
PROGRAM MAIN: Execution ended Normally
