(PID.TID 0000.0001) 
(PID.TID 0000.0001) // ======================================================
(PID.TID 0000.0001) //                      MITgcm UV
(PID.TID 0000.0001) //                      =========
(PID.TID 0000.0001) // ======================================================
(PID.TID 0000.0001) // execution environment starting up...
(PID.TID 0000.0001) 
(PID.TID 0000.0001) // MITgcmUV version:  checkpoint63o
(PID.TID 0000.0001) // Build user:        benw
(PID.TID 0000.0001) // Build host:        tide
(PID.TID 0000.0001) // Build date:        Thu Jul  5 03:54:54 EDT 2012
(PID.TID 0000.0001) 
(PID.TID 0000.0001) // =======================================================
(PID.TID 0000.0001) // Execution Environment parameter file "eedata"
(PID.TID 0000.0001) // =======================================================
(PID.TID 0000.0001) ># Example "eedata" file
(PID.TID 0000.0001) ># Lines beginning "#" are comments
(PID.TID 0000.0001) ># nTx - No. threads per process in X
(PID.TID 0000.0001) ># nTy - No. threads per process in Y
(PID.TID 0000.0001) > &EEPARMS
(PID.TID 0000.0001) > nTx=1,nTy=1
(PID.TID 0000.0001) > /
(PID.TID 0000.0001) ># Note: Some systems use & as the
(PID.TID 0000.0001) ># namelist terminator. Other systems
(PID.TID 0000.0001) ># use a / character (as shown here).
(PID.TID 0000.0001) 
(PID.TID 0000.0001) // =======================================================
(PID.TID 0000.0001) // Computational Grid Specification ( see files "SIZE.h" )
(PID.TID 0000.0001) //                                  ( and "eedata"       )
(PID.TID 0000.0001) // =======================================================
(PID.TID 0000.0001)      nPx =    1 ; /* No. processes in X */
(PID.TID 0000.0001)      nPy =    1 ; /* No. processes in Y */
(PID.TID 0000.0001)      nSx =    1 ; /* No. tiles in X per process */
(PID.TID 0000.0001)      nSy =    1 ; /* No. tiles in Y per process */
(PID.TID 0000.0001)      sNx =    1 ; /* Tile size in X */
(PID.TID 0000.0001)      sNy =    1 ; /* Tile size in Y */
(PID.TID 0000.0001)      OLx =    2 ; /* Tile overlap distance in X */
(PID.TID 0000.0001)      OLy =    2 ; /* Tile overlap distance in Y */
(PID.TID 0000.0001)      nTx =    1 ; /* No. threads in X per process */
(PID.TID 0000.0001)      nTy =    1 ; /* No. threads in Y per process */
(PID.TID 0000.0001)       Nr =   35 ; /* No. levels in the vertical   */
(PID.TID 0000.0001)       Nx =    1 ; /* Total domain size in X ( = nPx*nSx*sNx ) */
(PID.TID 0000.0001)       Ny =    1 ; /* Total domain size in Y ( = nPy*nSy*sNy ) */
(PID.TID 0000.0001)   nTiles =    1 ; /* Total no. tiles per process ( = nSx*nSy ) */
(PID.TID 0000.0001)   nProcs =    1 ; /* Total no. processes ( = nPx*nPy ) */
(PID.TID 0000.0001) nThreads =    1 ; /* Total no. threads per process ( = nTx*nTy ) */
(PID.TID 0000.0001) usingMPI =    F ; /* Flag used to control whether MPI is in use */
(PID.TID 0000.0001)                   /*  note: To execute a program with MPI calls */
(PID.TID 0000.0001)                   /*  it must be launched appropriately e.g     */
(PID.TID 0000.0001)                   /*  "mpirun -np 64 ......"                    */
(PID.TID 0000.0001) useCoupler=    F ;/* Flag used to control communications with   */
(PID.TID 0000.0001)                   /*  other model components, through a coupler */
(PID.TID 0000.0001) debugMode =    F ; /* print debug msg. (sequence of S/R calls)  */
(PID.TID 0000.0001) printMapIncludesZeros=    F ; /* print zeros in Std.Output maps */
(PID.TID 0000.0001) maxLengthPrt1D=   65 /* maxLength of 1D array printed to StdOut */
(PID.TID 0000.0001) 
(PID.TID 0000.0001) // ======================================================
(PID.TID 0000.0001) // Mapping of tiles to threads
(PID.TID 0000.0001) // ======================================================
(PID.TID 0000.0001) // -o- Thread   1, tiles (   1:   1,   1:   1)
(PID.TID 0000.0001) 
(PID.TID 0000.0001) // ======================================================
(PID.TID 0000.0001) // Tile <-> Tile connectvity table
(PID.TID 0000.0001) // ======================================================
(PID.TID 0000.0001) // Tile number: 000001 (process no. = 000001)
(PID.TID 0000.0001) //        WEST: Tile = 000001, Process = 000001, Comm = put
(PID.TID 0000.0001) //                bi = 000001, bj = 000001
(PID.TID 0000.0001) //        EAST: Tile = 000001, Process = 000001, Comm = put
(PID.TID 0000.0001) //                bi = 000001, bj = 000001
(PID.TID 0000.0001) //       SOUTH: Tile = 000001, Process = 000001, Comm = put
(PID.TID 0000.0001) //                bi = 000001, bj = 000001
(PID.TID 0000.0001) //       NORTH: Tile = 000001, Process = 000001, Comm = put
(PID.TID 0000.0001) //                bi = 000001, bj = 000001
(PID.TID 0000.0001) 
(PID.TID 0000.0001)  INI_PARMS: opening model parameter file "data"
(PID.TID 0000.0001)  OPEN_COPY_DATA_FILE: opening file data
(PID.TID 0000.0001) // =======================================================
(PID.TID 0000.0001) // Parameter file "data"
(PID.TID 0000.0001) // =======================================================
(PID.TID 0000.0001) >#
(PID.TID 0000.0001) ># ******************************
(PID.TID 0000.0001) ># Model parameters
(PID.TID 0000.0001) ># Continuous equation parameters
(PID.TID 0000.0001) ># ******************************
(PID.TID 0000.0001) >&PARM01
(PID.TID 0000.0001) >tRef= 26.5, 26.1, 26., 25.5, 25.4, 24.9, 24.5, 24.0, 23.7,
(PID.TID 0000.0001) >      23.3, 23.1, 22.8, 22.5, 22.1, 21.6, 20.6, 19.5, 18.4,
(PID.TID 0000.0001) >      17.3, 16.6, 15.5, 14.6, 13.8, 13.1, 11.6, 10.1, 7.7,
(PID.TID 0000.0001) >      5.3, 4.1, 3.7, 3.7, 3.4, 3.0, 2.8, 2.6,
(PID.TID 0000.0001) >sRef= 35*35.00,
(PID.TID 0000.0001) >no_slip_sides=.false.,
(PID.TID 0000.0001) >no_slip_bottom=.TRUE.,
(PID.TID 0000.0001) >viscAz=0.e0,
(PID.TID 0000.0001) >viscAh=0.e0,
(PID.TID 0000.0001) >diffKhT=1.E2,
(PID.TID 0000.0001) >diffKzT=1.E-4,
(PID.TID 0000.0001) >diffKhS=0.D0,
(PID.TID 0000.0001) >diffKzS=0.D0,
(PID.TID 0000.0001) >beta=1.E-11,
(PID.TID 0000.0001) >tAlpha=2.E-4,
(PID.TID 0000.0001) >sBeta =7.4E-4,
(PID.TID 0000.0001) >gravity=9.81,
(PID.TID 0000.0001) >gBaro=9.81,
(PID.TID 0000.0001) >rigidLid=.TRUE.,
(PID.TID 0000.0001) >implicitFreeSurface=.false.,
(PID.TID 0000.0001) >eosType='JMD95Z',
(PID.TID 0000.0001) >saltStepping=.FALSE.,
(PID.TID 0000.0001) >tempStepping=.TRUE.,
(PID.TID 0000.0001) >tempAdvection=.TRUE.,
(PID.TID 0000.0001) >momStepping=.FALSE.,
(PID.TID 0000.0001) >implicitDiffusion=.true.,
(PID.TID 0000.0001) >implicitViscosity=.true.,
(PID.TID 0000.0001) >allowFreezing=.false.,
(PID.TID 0000.0001) >useSingleCpuIO=.TRUE.,
(PID.TID 0000.0001) >useCDscheme=.FALSE.,
(PID.TID 0000.0001) >tempAdvScheme = 3,
(PID.TID 0000.0001) >saltAdvScheme = 3,
(PID.TID 0000.0001) >/
(PID.TID 0000.0001) >
(PID.TID 0000.0001) ># **************************
(PID.TID 0000.0001) ># Elliptic solver parameters
(PID.TID 0000.0001) ># **************************
(PID.TID 0000.0001) >&PARM02
(PID.TID 0000.0001) >cg2dMaxIters=300,
(PID.TID 0000.0001) >cg2dTargetResidual=1.E-7,
(PID.TID 0000.0001) >/
(PID.TID 0000.0001) >
(PID.TID 0000.0001) ># ************************
(PID.TID 0000.0001) ># Time stepping parameters
(PID.TID 0000.0001) ># ************************
(PID.TID 0000.0001) >&PARM03
(PID.TID 0000.0001) > nIter0=000000,
(PID.TID 0000.0001) ># nTimeSteps=86400,
(PID.TID 0000.0001) > nTimeSteps=4,
(PID.TID 0000.0001) > deltaTmom= 10800.,
(PID.TID 0000.0001) > deltaTtracer= 10800.,
(PID.TID 0000.0001) > deltaTClock = 10800.,
(PID.TID 0000.0001) >#benw set to 0. to switch off cAdj (?)
(PID.TID 0000.0001) > cAdjFreq=0.,
(PID.TID 0000.0001) > abEps=0.1,
(PID.TID 0000.0001) > pChkptFreq  = 31104000.0,
(PID.TID 0000.0001) > chkptFreq   = 31104000.0,
(PID.TID 0000.0001) > monitorFreq = 1.,
(PID.TID 0000.0001) > dumpFreq    = 31104000.0,
(PID.TID 0000.0001) > taveFreq    = 86400.,
(PID.TID 0000.0001) > tauThetaClimRelax=259200.,
(PID.TID 0000.0001) > tauSaltClimRelax=0.,
(PID.TID 0000.0001) > periodicExternalForcing=.TRUE.,
(PID.TID 0000.0001) > externForcingPeriod=2592000.,
(PID.TID 0000.0001) > externForcingCycle=31104000.,
(PID.TID 0000.0001) >/
(PID.TID 0000.0001) >
(PID.TID 0000.0001) ># *******************
(PID.TID 0000.0001) ># Gridding parameters
(PID.TID 0000.0001) ># *******************
(PID.TID 0000.0001) >&PARM04
(PID.TID 0000.0001) >usingCartesianGrid=.FALSE.,
(PID.TID 0000.0001) >usingSphericalPolarGrid=.TRUE.,
(PID.TID 0000.0001) >delX=1*1.E0,
(PID.TID 0000.0001) >delY=1*1.E0,
(PID.TID 0000.0001) >delZ=14*10, 5*15, 4*20, 2*50, 100, 2*150, 200, 300, 3*400, 2*500,
(PID.TID 0000.0001) >xgOrigin=335,
(PID.TID 0000.0001) >ygOrigin=-18.,
(PID.TID 0000.0001) >/
(PID.TID 0000.0001) >
(PID.TID 0000.0001) ># **********
(PID.TID 0000.0001) ># Data Files
(PID.TID 0000.0001) ># **********
(PID.TID 0000.0001) >&PARM05
(PID.TID 0000.0001) >bathyFile=       '../input/input/bathyneg.bin',
(PID.TID 0000.0001) >hydrogThetaFile= '../input/input/loc1_temp_janprof.bin',
(PID.TID 0000.0001) >hydrogSaltFile=  '../input/input/salt_uniform.bin',
(PID.TID 0000.0001) >zonalWindFile=   '../input/input/wind_u_mon.bin',
(PID.TID 0000.0001) >meridWindFile=   '../input/input/wind_v_mon.bin',
(PID.TID 0000.0001) >thetaClimFile=   '../input/input/loc1_temp_monsurf.bin',
(PID.TID 0000.0001) >saltClimFile=    '',
(PID.TID 0000.0001) >surfQFile=       '',
(PID.TID 0000.0001) >EmPmRFile=       '',
(PID.TID 0000.0001) >/
(PID.TID 0000.0001) 
(PID.TID 0000.0001)  INI_PARMS ; starts to read PARM01
(PID.TID 0000.0001)  INI_PARMS ; read PARM01 : OK
(PID.TID 0000.0001)  INI_PARMS ; starts to read PARM02
(PID.TID 0000.0001)  INI_PARMS ; read PARM02 : OK
(PID.TID 0000.0001)  INI_PARMS ; starts to read PARM03
(PID.TID 0000.0001)  INI_PARMS ; read PARM03 : OK
(PID.TID 0000.0001)  INI_PARMS ; starts to read PARM04
(PID.TID 0000.0001)  INI_PARMS ; read PARM04 : OK
(PID.TID 0000.0001)  INI_PARMS ; starts to read PARM05
(PID.TID 0000.0001)  INI_PARMS ; read PARM05 : OK
(PID.TID 0000.0001)  INI_PARMS: finished reading file "data"
(PID.TID 0000.0001)  PACKAGES_BOOT: opening data.pkg
(PID.TID 0000.0001)  OPEN_COPY_DATA_FILE: opening file data.pkg
(PID.TID 0000.0001) // =======================================================
(PID.TID 0000.0001) // Parameter file "data.pkg"
(PID.TID 0000.0001) // =======================================================
(PID.TID 0000.0001) ># Packages
(PID.TID 0000.0001) > &PACKAGES
(PID.TID 0000.0001) > usePTRACERS=.TRUE.
(PID.TID 0000.0001) > useGCHEM=.TRUE.,
(PID.TID 0000.0001) ># useDiagnostics=.TRUE.,
(PID.TID 0000.0001) > useKPP=.TRUE.,
(PID.TID 0000.0001) > useMNC=.TRUE.,
(PID.TID 0000.0001) > /
(PID.TID 0000.0001) 
(PID.TID 0000.0001)  PACKAGES_BOOT: finished reading data.pkg
(PID.TID 0000.0001)  MNC_READPARMS: opening file 'data.mnc'
(PID.TID 0000.0001)  OPEN_COPY_DATA_FILE: opening file data.mnc
(PID.TID 0000.0001) // =======================================================
(PID.TID 0000.0001) // Parameter file "data.mnc"
(PID.TID 0000.0001) // =======================================================
(PID.TID 0000.0001) ># Example "data.mnc" file
(PID.TID 0000.0001) ># Lines beginning "#" are comments
(PID.TID 0000.0001) > &MNC_01
(PID.TID 0000.0001) ># mnc_echo_gvtypes=.FALSE.,
(PID.TID 0000.0001) ># mnc_use_indir=.FALSE.,
(PID.TID 0000.0001) > mnc_use_outdir=.TRUE.,
(PID.TID 0000.0001) > mnc_outdir_str='dar1d_',
(PID.TID 0000.0001) > mnc_outdir_date=.TRUE.,
(PID.TID 0000.0001) > monitor_mnc=.FALSE.,
(PID.TID 0000.0001) > snapshot_mnc=.TRUE.,
(PID.TID 0000.0001) > timeave_mnc=.TRUE.,
(PID.TID 0000.0001) > pickup_read_mnc=.FALSE.,
(PID.TID 0000.0001) > pickup_write_mnc=.FALSE.,
(PID.TID 0000.0001) > /
(PID.TID 0000.0001) ># Note: Some systems use & as the
(PID.TID 0000.0001) ># namelist terminator. Other systems
(PID.TID 0000.0001) ># use a / character.
(PID.TID 0000.0001) 
(PID.TID 0000.0001)  MNC_READPARMS: finished reading data.mnc
(PID.TID 0000.0001)  KPP_INIT: opening data.kpp
(PID.TID 0000.0001)  OPEN_COPY_DATA_FILE: opening file data.kpp
(PID.TID 0000.0001) // =======================================================
(PID.TID 0000.0001) // Parameter file "data.kpp"
(PID.TID 0000.0001) // =======================================================
(PID.TID 0000.0001) ># KPP parameters
(PID.TID 0000.0001) > &KPP_PARM01
(PID.TID 0000.0001) > KPPmixingMaps   = .FALSE.,
(PID.TID 0000.0001) > KPPwriteState   = .TRUE.,
(PID.TID 0000.0001) > kpp_dumpFreq    = 2592000.
(PID.TID 0000.0001) > kpp_tavefreq    = 2592000.
(PID.TID 0000.0001) > Ricr            = 0.3559
(PID.TID 0000.0001) > Riinfty         = 0.6998
(PID.TID 0000.0001) > /
(PID.TID 0000.0001) 
(PID.TID 0000.0001)  KPP_INIT: finished reading data.kpp
(PID.TID 0000.0001)  PTRACERS_READPARMS: opening data.ptracers
(PID.TID 0000.0001)  OPEN_COPY_DATA_FILE: opening file data.ptracers
(PID.TID 0000.0001) // =======================================================
(PID.TID 0000.0001) // Parameter file "data.ptracers"
(PID.TID 0000.0001) // =======================================================
(PID.TID 0000.0001) > &PTRACERS_PARM01
(PID.TID 0000.0001) > PTRACERS_numInUse=74,
(PID.TID 0000.0001) > PTRACERS_Iter0= 0,
(PID.TID 0000.0001) ># tracer 1 - Dissolved Inorganic Carbon
(PID.TID 0000.0001) > PTRACERS_names(1)='DIC',
(PID.TID 0000.0001) > PTRACERS_units(1)='mmol C/m^3',
(PID.TID 0000.0001) > PTRACERS_advScheme(1)=33,
(PID.TID 0000.0001) > PTRACERS_diffKh(1)=0.E3,
(PID.TID 0000.0001) > PTRACERS_diffKr(1)=1.E-5,
(PID.TID 0000.0001) > PTRACERS_useGMRedi(1)=.FALSE.,
(PID.TID 0000.0001) > PTRACERS_useKPP(1)=.TRUE.,
(PID.TID 0000.0001) > PTRACERS_initialFile(1)='../input/input/loc1_DIC_annprof.bin',
(PID.TID 0000.0001) ># tracer 2 - Nitrate
(PID.TID 0000.0001) > PTRACERS_names(2)='NO3',
(PID.TID 0000.0001) > PTRACERS_units(2)='mmol N/m^3',
(PID.TID 0000.0001) > PTRACERS_advScheme(2)=33,
(PID.TID 0000.0001) > PTRACERS_diffKh(2)=0.E3,
(PID.TID 0000.0001) > PTRACERS_diffKr(2)=1.E-5,
(PID.TID 0000.0001) > PTRACERS_useGMRedi(2)=.FALSE.,
(PID.TID 0000.0001) > PTRACERS_useKPP(2)=.TRUE.,
(PID.TID 0000.0001) > PTRACERS_initialFile(2)='../input/input/loc1_nitr_janprof.bin',
(PID.TID 0000.0001) ># tracer 3 - Nitrite
(PID.TID 0000.0001) > PTRACERS_names(3)='NO2',
(PID.TID 0000.0001) > PTRACERS_units(3)='mmol N/m^3',
(PID.TID 0000.0001) > PTRACERS_advScheme(3)=33,
(PID.TID 0000.0001) > PTRACERS_diffKh(3)=0.E3,
(PID.TID 0000.0001) > PTRACERS_diffKr(3)=1.E-5,
(PID.TID 0000.0001) > PTRACERS_useGMRedi(3)=.FALSE.,
(PID.TID 0000.0001) > PTRACERS_useKPP(3)=.TRUE.,
(PID.TID 0000.0001) > PTRACERS_initialFile(3)='../input/input/loc1_NO2_run83_janprof.bin',
(PID.TID 0000.0001) ># tracer 4 - Ammonium
(PID.TID 0000.0001) > PTRACERS_names(4)='NH4',
(PID.TID 0000.0001) > PTRACERS_units(4)='mmol N/m^3',
(PID.TID 0000.0001) > PTRACERS_advScheme(4)=33,
(PID.TID 0000.0001) > PTRACERS_diffKh(4)=0.E3,
(PID.TID 0000.0001) > PTRACERS_diffKr(4)=1.E-5,
(PID.TID 0000.0001) > PTRACERS_useGMRedi(4)=.FALSE.,
(PID.TID 0000.0001) > PTRACERS_useKPP(4)=.TRUE.,
(PID.TID 0000.0001) > PTRACERS_initialFile(4)='../input/input/loc1_NH4_run83_janprof.bin',
(PID.TID 0000.0001) ># tracer 5 - Dissolved Iron
(PID.TID 0000.0001) > PTRACERS_names(5)='FeT',
(PID.TID 0000.0001) > PTRACERS_units(5)='mmol Fe/m^3',
(PID.TID 0000.0001) > PTRACERS_advScheme(5)=33,
(PID.TID 0000.0001) > PTRACERS_diffKh(5)=0.E3,
(PID.TID 0000.0001) > PTRACERS_diffKr(5)=1.E-5,
(PID.TID 0000.0001) > PTRACERS_useGMRedi(5)=.FALSE.,
(PID.TID 0000.0001) > PTRACERS_useKPP(5)=.TRUE.,
(PID.TID 0000.0001) > PTRACERS_initialFile(5)='../input/input/loc1_FeT_run83_janprof.bin',
(PID.TID 0000.0001) ># tracer 6 - Carbon Biomass: Plankton(1)
(PID.TID 0000.0001) > PTRACERS_names(6)='BIO_1_001',
(PID.TID 0000.0001) > PTRACERS_units(6)='mmol C/m^3',
(PID.TID 0000.0001) > PTRACERS_advScheme(6)=33,
(PID.TID 0000.0001) > PTRACERS_diffKh(6)=0.E3,
(PID.TID 0000.0001) > PTRACERS_diffKr(6)=1.E-5,
(PID.TID 0000.0001) > PTRACERS_useGMRedi(6)=.FALSE.,
(PID.TID 0000.0001) > PTRACERS_useKPP(6)=.TRUE.,
(PID.TID 0000.0001) > PTRACERS_initialFile(6)='../input/input/loc1_C_biomass_janprof.bin',
(PID.TID 0000.0001) ># tracer 7 - Carbon Biomass: Plankton(2)
(PID.TID 0000.0001) > PTRACERS_names(7)='BIO_1_002',
(PID.TID 0000.0001) > PTRACERS_units(7)='mmol C/m^3',
(PID.TID 0000.0001) > PTRACERS_advScheme(7)=33,
(PID.TID 0000.0001) > PTRACERS_diffKh(7)=0.E3,
(PID.TID 0000.0001) > PTRACERS_diffKr(7)=1.E-5,
(PID.TID 0000.0001) > PTRACERS_useGMRedi(7)=.FALSE.,
(PID.TID 0000.0001) > PTRACERS_useKPP(7)=.TRUE.,
(PID.TID 0000.0001) > PTRACERS_initialFile(7)='../input/input/loc1_C_biomass_janprof.bin',
(PID.TID 0000.0001) ># tracer 8 - Carbon Biomass: Plankton(3)
(PID.TID 0000.0001) > PTRACERS_names(8)='BIO_1_003',
(PID.TID 0000.0001) > PTRACERS_units(8)='mmol C/m^3',
(PID.TID 0000.0001) > PTRACERS_advScheme(8)=33,
(PID.TID 0000.0001) > PTRACERS_diffKh(8)=0.E3,
(PID.TID 0000.0001) > PTRACERS_diffKr(8)=1.E-5,
(PID.TID 0000.0001) > PTRACERS_useGMRedi(8)=.FALSE.,
(PID.TID 0000.0001) > PTRACERS_useKPP(8)=.TRUE.,
(PID.TID 0000.0001) > PTRACERS_initialFile(8)='../input/input/loc1_C_biomass_janprof.bin',
(PID.TID 0000.0001) ># tracer 9 - Carbon Biomass: Plankton(4)
(PID.TID 0000.0001) > PTRACERS_names(9)='BIO_1_004',
(PID.TID 0000.0001) > PTRACERS_units(9)='mmol C/m^3',
(PID.TID 0000.0001) > PTRACERS_advScheme(9)=33,
(PID.TID 0000.0001) > PTRACERS_diffKh(9)=0.E3,
(PID.TID 0000.0001) > PTRACERS_diffKr(9)=1.E-5,
(PID.TID 0000.0001) > PTRACERS_useGMRedi(9)=.FALSE.,
(PID.TID 0000.0001) > PTRACERS_useKPP(9)=.TRUE.,
(PID.TID 0000.0001) > PTRACERS_initialFile(9)='../input/input/loc1_C_biomass_janprof.bin',
(PID.TID 0000.0001) ># tracer 10 - Carbon Biomass: Plankton(5)
(PID.TID 0000.0001) > PTRACERS_names(10)='BIO_1_005',
(PID.TID 0000.0001) > PTRACERS_units(10)='mmol C/m^3',
(PID.TID 0000.0001) > PTRACERS_advScheme(10)=33,
(PID.TID 0000.0001) > PTRACERS_diffKh(10)=0.E3,
(PID.TID 0000.0001) > PTRACERS_diffKr(10)=1.E-5,
(PID.TID 0000.0001) > PTRACERS_useGMRedi(10)=.FALSE.,
(PID.TID 0000.0001) > PTRACERS_useKPP(10)=.TRUE.,
(PID.TID 0000.0001) > PTRACERS_initialFile(10)='../input/input/loc1_C_biomass_janprof.bin',
(PID.TID 0000.0001) ># tracer 11 - Carbon Biomass: Plankton(6)
(PID.TID 0000.0001) > PTRACERS_names(11)='BIO_1_006',
(PID.TID 0000.0001) > PTRACERS_units(11)='mmol C/m^3',
(PID.TID 0000.0001) > PTRACERS_advScheme(11)=33,
(PID.TID 0000.0001) > PTRACERS_diffKh(11)=0.E3,
(PID.TID 0000.0001) > PTRACERS_diffKr(11)=1.E-5,
(PID.TID 0000.0001) > PTRACERS_useGMRedi(11)=.FALSE.,
(PID.TID 0000.0001) > PTRACERS_useKPP(11)=.TRUE.,
(PID.TID 0000.0001) > PTRACERS_initialFile(11)='../input/input/loc1_C_biomass_janprof.bin',
(PID.TID 0000.0001) ># tracer 12 - Carbon Biomass: Plankton(7)
(PID.TID 0000.0001) > PTRACERS_names(12)='BIO_1_007',
(PID.TID 0000.0001) > PTRACERS_units(12)='mmol C/m^3',
(PID.TID 0000.0001) > PTRACERS_advScheme(12)=33,
(PID.TID 0000.0001) > PTRACERS_diffKh(12)=0.E3,
(PID.TID 0000.0001) > PTRACERS_diffKr(12)=1.E-5,
(PID.TID 0000.0001) > PTRACERS_useGMRedi(12)=.FALSE.,
(PID.TID 0000.0001) > PTRACERS_useKPP(12)=.TRUE.,
(PID.TID 0000.0001) > PTRACERS_initialFile(12)='../input/input/loc1_C_biomass_janprof.bin',
(PID.TID 0000.0001) ># tracer 13 - Carbon Biomass: Plankton(8)
(PID.TID 0000.0001) > PTRACERS_names(13)='BIO_1_008',
(PID.TID 0000.0001) > PTRACERS_units(13)='mmol C/m^3',
(PID.TID 0000.0001) > PTRACERS_advScheme(13)=33,
(PID.TID 0000.0001) > PTRACERS_diffKh(13)=0.E3,
(PID.TID 0000.0001) > PTRACERS_diffKr(13)=1.E-5,
(PID.TID 0000.0001) > PTRACERS_useGMRedi(13)=.FALSE.,
(PID.TID 0000.0001) > PTRACERS_useKPP(13)=.TRUE.,
(PID.TID 0000.0001) > PTRACERS_initialFile(13)='../input/input/loc1_C_biomass_janprof.bin',
(PID.TID 0000.0001) ># tracer 14 - Carbon Biomass: Plankton(9)
(PID.TID 0000.0001) > PTRACERS_names(14)='BIO_1_009',
(PID.TID 0000.0001) > PTRACERS_units(14)='mmol C/m^3',
(PID.TID 0000.0001) > PTRACERS_advScheme(14)=33,
(PID.TID 0000.0001) > PTRACERS_diffKh(14)=0.E3,
(PID.TID 0000.0001) > PTRACERS_diffKr(14)=1.E-5,
(PID.TID 0000.0001) > PTRACERS_useGMRedi(14)=.FALSE.,
(PID.TID 0000.0001) > PTRACERS_useKPP(14)=.TRUE.,
(PID.TID 0000.0001) > PTRACERS_initialFile(14)='../input/input/loc1_C_biomass_janprof.bin',
(PID.TID 0000.0001) ># tracer 15 - Carbon Biomass: Plankton(10)
(PID.TID 0000.0001) > PTRACERS_names(15)='BIO_1_010',
(PID.TID 0000.0001) > PTRACERS_units(15)='mmol C/m^3',
(PID.TID 0000.0001) > PTRACERS_advScheme(15)=33,
(PID.TID 0000.0001) > PTRACERS_diffKh(15)=0.E3,
(PID.TID 0000.0001) > PTRACERS_diffKr(15)=1.E-5,
(PID.TID 0000.0001) > PTRACERS_useGMRedi(15)=.FALSE.,
(PID.TID 0000.0001) > PTRACERS_useKPP(15)=.TRUE.,
(PID.TID 0000.0001) > PTRACERS_initialFile(15)='../input/input/loc1_C_biomass_janprof.bin',
(PID.TID 0000.0001) ># tracer 16 - Carbon Biomass: Plankton(11)
(PID.TID 0000.0001) > PTRACERS_names(16)='BIO_1_011',
(PID.TID 0000.0001) > PTRACERS_units(16)='mmol C/m^3',
(PID.TID 0000.0001) > PTRACERS_advScheme(16)=33,
(PID.TID 0000.0001) > PTRACERS_diffKh(16)=0.E3,
(PID.TID 0000.0001) > PTRACERS_diffKr(16)=1.E-5,
(PID.TID 0000.0001) > PTRACERS_useGMRedi(16)=.FALSE.,
(PID.TID 0000.0001) > PTRACERS_useKPP(16)=.TRUE.,
(PID.TID 0000.0001) > PTRACERS_initialFile(16)='../input/input/loc1_C_biomass_janprof.bin',
(PID.TID 0000.0001) ># tracer 17 - Carbon Biomass: Plankton(12)
(PID.TID 0000.0001) > PTRACERS_names(17)='BIO_1_012',
(PID.TID 0000.0001) > PTRACERS_units(17)='mmol C/m^3',
(PID.TID 0000.0001) > PTRACERS_advScheme(17)=33,
(PID.TID 0000.0001) > PTRACERS_diffKh(17)=0.E3,
(PID.TID 0000.0001) > PTRACERS_diffKr(17)=1.E-5,
(PID.TID 0000.0001) > PTRACERS_useGMRedi(17)=.FALSE.,
(PID.TID 0000.0001) > PTRACERS_useKPP(17)=.TRUE.,
(PID.TID 0000.0001) > PTRACERS_initialFile(17)='../input/input/loc1_C_biomass_janprof.bin',
(PID.TID 0000.0001) ># tracer 18 - Carbon Biomass: Plankton(13)
(PID.TID 0000.0001) > PTRACERS_names(18)='BIO_1_013',
(PID.TID 0000.0001) > PTRACERS_units(18)='mmol C/m^3',
(PID.TID 0000.0001) > PTRACERS_advScheme(18)=33,
(PID.TID 0000.0001) > PTRACERS_diffKh(18)=0.E3,
(PID.TID 0000.0001) > PTRACERS_diffKr(18)=1.E-5,
(PID.TID 0000.0001) > PTRACERS_useGMRedi(18)=.FALSE.,
(PID.TID 0000.0001) > PTRACERS_useKPP(18)=.TRUE.,
(PID.TID 0000.0001) > PTRACERS_initialFile(18)='../input/input/loc1_C_biomass_janprof.bin',
(PID.TID 0000.0001) ># tracer 19 - Carbon Biomass: Plankton(14)
(PID.TID 0000.0001) > PTRACERS_names(19)='BIO_1_014',
(PID.TID 0000.0001) > PTRACERS_units(19)='mmol C/m^3',
(PID.TID 0000.0001) > PTRACERS_advScheme(19)=33,
(PID.TID 0000.0001) > PTRACERS_diffKh(19)=0.E3,
(PID.TID 0000.0001) > PTRACERS_diffKr(19)=1.E-5,
(PID.TID 0000.0001) > PTRACERS_useGMRedi(19)=.FALSE.,
(PID.TID 0000.0001) > PTRACERS_useKPP(19)=.TRUE.,
(PID.TID 0000.0001) > PTRACERS_initialFile(19)='../input/input/loc1_C_biomass_janprof.bin',
(PID.TID 0000.0001) ># tracer 20 - Carbon Biomass: Plankton(15)
(PID.TID 0000.0001) > PTRACERS_names(20)='BIO_1_015',
(PID.TID 0000.0001) > PTRACERS_units(20)='mmol C/m^3',
(PID.TID 0000.0001) > PTRACERS_advScheme(20)=33,
(PID.TID 0000.0001) > PTRACERS_diffKh(20)=0.E3,
(PID.TID 0000.0001) > PTRACERS_diffKr(20)=1.E-5,
(PID.TID 0000.0001) > PTRACERS_useGMRedi(20)=.FALSE.,
(PID.TID 0000.0001) > PTRACERS_useKPP(20)=.TRUE.,
(PID.TID 0000.0001) > PTRACERS_initialFile(20)='../input/input/loc1_C_biomass_janprof.bin',
(PID.TID 0000.0001) ># tracer 21 - Carbon Biomass: Plankton(16)
(PID.TID 0000.0001) > PTRACERS_names(21)='BIO_1_016',
(PID.TID 0000.0001) > PTRACERS_units(21)='mmol C/m^3',
(PID.TID 0000.0001) > PTRACERS_advScheme(21)=33,
(PID.TID 0000.0001) > PTRACERS_diffKh(21)=0.E3,
(PID.TID 0000.0001) > PTRACERS_diffKr(21)=1.E-5,
(PID.TID 0000.0001) > PTRACERS_useGMRedi(21)=.FALSE.,
(PID.TID 0000.0001) > PTRACERS_useKPP(21)=.TRUE.,
(PID.TID 0000.0001) > PTRACERS_initialFile(21)='../input/input/loc1_C_biomass_janprof.bin',
(PID.TID 0000.0001) ># tracer 22 - Nitrogen Biomass: Plankton(1)
(PID.TID 0000.0001) > PTRACERS_names(22)='BIO_2_001',
(PID.TID 0000.0001) > PTRACERS_units(22)='mmol N/m^3',
(PID.TID 0000.0001) > PTRACERS_advScheme(22)=33,
(PID.TID 0000.0001) > PTRACERS_diffKh(22)=0.E3,
(PID.TID 0000.0001) > PTRACERS_diffKr(22)=1.E-5,
(PID.TID 0000.0001) > PTRACERS_useGMRedi(22)=.FALSE.,
(PID.TID 0000.0001) > PTRACERS_useKPP(22)=.TRUE.,
(PID.TID 0000.0001) > PTRACERS_initialFile(22)='../input/input/loc1_N_biomass_janprof.bin',
(PID.TID 0000.0001) ># tracer 23 - Nitrogen Biomass: Plankton(2)
(PID.TID 0000.0001) > PTRACERS_names(23)='BIO_2_002',
(PID.TID 0000.0001) > PTRACERS_units(23)='mmol N/m^3',
(PID.TID 0000.0001) > PTRACERS_advScheme(23)=33,
(PID.TID 0000.0001) > PTRACERS_diffKh(23)=0.E3,
(PID.TID 0000.0001) > PTRACERS_diffKr(23)=1.E-5,
(PID.TID 0000.0001) > PTRACERS_useGMRedi(23)=.FALSE.,
(PID.TID 0000.0001) > PTRACERS_useKPP(23)=.TRUE.,
(PID.TID 0000.0001) > PTRACERS_initialFile(23)='../input/input/loc1_N_biomass_janprof.bin',
(PID.TID 0000.0001) ># tracer 24 - Nitrogen Biomass: Plankton(3)
(PID.TID 0000.0001) > PTRACERS_names(24)='BIO_2_003',
(PID.TID 0000.0001) > PTRACERS_units(24)='mmol N/m^3',
(PID.TID 0000.0001) > PTRACERS_advScheme(24)=33,
(PID.TID 0000.0001) > PTRACERS_diffKh(24)=0.E3,
(PID.TID 0000.0001) > PTRACERS_diffKr(24)=1.E-5,
(PID.TID 0000.0001) > PTRACERS_useGMRedi(24)=.FALSE.,
(PID.TID 0000.0001) > PTRACERS_useKPP(24)=.TRUE.,
(PID.TID 0000.0001) > PTRACERS_initialFile(24)='../input/input/loc1_N_biomass_janprof.bin',
(PID.TID 0000.0001) ># tracer 25 - Nitrogen Biomass: Plankton(4)
(PID.TID 0000.0001) > PTRACERS_names(25)='BIO_2_004',
(PID.TID 0000.0001) > PTRACERS_units(25)='mmol N/m^3',
(PID.TID 0000.0001) > PTRACERS_advScheme(25)=33,
(PID.TID 0000.0001) > PTRACERS_diffKh(25)=0.E3,
(PID.TID 0000.0001) > PTRACERS_diffKr(25)=1.E-5,
(PID.TID 0000.0001) > PTRACERS_useGMRedi(25)=.FALSE.,
(PID.TID 0000.0001) > PTRACERS_useKPP(25)=.TRUE.,
(PID.TID 0000.0001) > PTRACERS_initialFile(25)='../input/input/loc1_N_biomass_janprof.bin',
(PID.TID 0000.0001) ># tracer 26 - Nitrogen Biomass: Plankton(5)
(PID.TID 0000.0001) > PTRACERS_names(26)='BIO_2_005',
(PID.TID 0000.0001) > PTRACERS_units(26)='mmol N/m^3',
(PID.TID 0000.0001) > PTRACERS_advScheme(26)=33,
(PID.TID 0000.0001) > PTRACERS_diffKh(26)=0.E3,
(PID.TID 0000.0001) > PTRACERS_diffKr(26)=1.E-5,
(PID.TID 0000.0001) > PTRACERS_useGMRedi(26)=.FALSE.,
(PID.TID 0000.0001) > PTRACERS_useKPP(26)=.TRUE.,
(PID.TID 0000.0001) > PTRACERS_initialFile(26)='../input/input/loc1_N_biomass_janprof.bin',
(PID.TID 0000.0001) ># tracer 27 - Nitrogen Biomass: Plankton(6)
(PID.TID 0000.0001) > PTRACERS_names(27)='BIO_2_006',
(PID.TID 0000.0001) > PTRACERS_units(27)='mmol N/m^3',
(PID.TID 0000.0001) > PTRACERS_advScheme(27)=33,
(PID.TID 0000.0001) > PTRACERS_diffKh(27)=0.E3,
(PID.TID 0000.0001) > PTRACERS_diffKr(27)=1.E-5,
(PID.TID 0000.0001) > PTRACERS_useGMRedi(27)=.FALSE.,
(PID.TID 0000.0001) > PTRACERS_useKPP(27)=.TRUE.,
(PID.TID 0000.0001) > PTRACERS_initialFile(27)='../input/input/loc1_N_biomass_janprof.bin',
(PID.TID 0000.0001) ># tracer 28 - Nitrogen Biomass: Plankton(7)
(PID.TID 0000.0001) > PTRACERS_names(28)='BIO_2_007',
(PID.TID 0000.0001) > PTRACERS_units(28)='mmol N/m^3',
(PID.TID 0000.0001) > PTRACERS_advScheme(28)=33,
(PID.TID 0000.0001) > PTRACERS_diffKh(28)=0.E3,
(PID.TID 0000.0001) > PTRACERS_diffKr(28)=1.E-5,
(PID.TID 0000.0001) > PTRACERS_useGMRedi(28)=.FALSE.,
(PID.TID 0000.0001) > PTRACERS_useKPP(28)=.TRUE.,
(PID.TID 0000.0001) > PTRACERS_initialFile(28)='../input/input/loc1_N_biomass_janprof.bin',
(PID.TID 0000.0001) ># tracer 29 - Nitrogen Biomass: Plankton(8)
(PID.TID 0000.0001) > PTRACERS_names(29)='BIO_2_008',
(PID.TID 0000.0001) > PTRACERS_units(29)='mmol N/m^3',
(PID.TID 0000.0001) > PTRACERS_advScheme(29)=33,
(PID.TID 0000.0001) > PTRACERS_diffKh(29)=0.E3,
(PID.TID 0000.0001) > PTRACERS_diffKr(29)=1.E-5,
(PID.TID 0000.0001) > PTRACERS_useGMRedi(29)=.FALSE.,
(PID.TID 0000.0001) > PTRACERS_useKPP(29)=.TRUE.,
(PID.TID 0000.0001) > PTRACERS_initialFile(29)='../input/input/loc1_N_biomass_janprof.bin',
(PID.TID 0000.0001) ># tracer 30 - Nitrogen Biomass: Plankton(9)
(PID.TID 0000.0001) > PTRACERS_names(30)='BIO_2_009',
(PID.TID 0000.0001) > PTRACERS_units(30)='mmol N/m^3',
(PID.TID 0000.0001) > PTRACERS_advScheme(30)=33,
(PID.TID 0000.0001) > PTRACERS_diffKh(30)=0.E3,
(PID.TID 0000.0001) > PTRACERS_diffKr(30)=1.E-5,
(PID.TID 0000.0001) > PTRACERS_useGMRedi(30)=.FALSE.,
(PID.TID 0000.0001) > PTRACERS_useKPP(30)=.TRUE.,
(PID.TID 0000.0001) > PTRACERS_initialFile(30)='../input/input/loc1_N_biomass_janprof.bin',
(PID.TID 0000.0001) ># tracer 31 - Nitrogen Biomass: Plankton(10)
(PID.TID 0000.0001) > PTRACERS_names(31)='BIO_2_010',
(PID.TID 0000.0001) > PTRACERS_units(31)='mmol N/m^3',
(PID.TID 0000.0001) > PTRACERS_advScheme(31)=33,
(PID.TID 0000.0001) > PTRACERS_diffKh(31)=0.E3,
(PID.TID 0000.0001) > PTRACERS_diffKr(31)=1.E-5,
(PID.TID 0000.0001) > PTRACERS_useGMRedi(31)=.FALSE.,
(PID.TID 0000.0001) > PTRACERS_useKPP(31)=.TRUE.,
(PID.TID 0000.0001) > PTRACERS_initialFile(31)='../input/input/loc1_N_biomass_janprof.bin',
(PID.TID 0000.0001) ># tracer 32 - Nitrogen Biomass: Plankton(11)
(PID.TID 0000.0001) > PTRACERS_names(32)='BIO_2_011',
(PID.TID 0000.0001) > PTRACERS_units(32)='mmol N/m^3',
(PID.TID 0000.0001) > PTRACERS_advScheme(32)=33,
(PID.TID 0000.0001) > PTRACERS_diffKh(32)=0.E3,
(PID.TID 0000.0001) > PTRACERS_diffKr(32)=1.E-5,
(PID.TID 0000.0001) > PTRACERS_useGMRedi(32)=.FALSE.,
(PID.TID 0000.0001) > PTRACERS_useKPP(32)=.TRUE.,
(PID.TID 0000.0001) > PTRACERS_initialFile(32)='../input/input/loc1_N_biomass_janprof.bin',
(PID.TID 0000.0001) ># tracer 33 - Nitrogen Biomass: Plankton(12)
(PID.TID 0000.0001) > PTRACERS_names(33)='BIO_2_012',
(PID.TID 0000.0001) > PTRACERS_units(33)='mmol N/m^3',
(PID.TID 0000.0001) > PTRACERS_advScheme(33)=33,
(PID.TID 0000.0001) > PTRACERS_diffKh(33)=0.E3,
(PID.TID 0000.0001) > PTRACERS_diffKr(33)=1.E-5,
(PID.TID 0000.0001) > PTRACERS_useGMRedi(33)=.FALSE.,
(PID.TID 0000.0001) > PTRACERS_useKPP(33)=.TRUE.,
(PID.TID 0000.0001) > PTRACERS_initialFile(33)='../input/input/loc1_N_biomass_janprof.bin',
(PID.TID 0000.0001) ># tracer 34 - Nitrogen Biomass: Plankton(13)
(PID.TID 0000.0001) > PTRACERS_names(34)='BIO_2_013',
(PID.TID 0000.0001) > PTRACERS_units(34)='mmol N/m^3',
(PID.TID 0000.0001) > PTRACERS_advScheme(34)=33,
(PID.TID 0000.0001) > PTRACERS_diffKh(34)=0.E3,
(PID.TID 0000.0001) > PTRACERS_diffKr(34)=1.E-5,
(PID.TID 0000.0001) > PTRACERS_useGMRedi(34)=.FALSE.,
(PID.TID 0000.0001) > PTRACERS_useKPP(34)=.TRUE.,
(PID.TID 0000.0001) > PTRACERS_initialFile(34)='../input/input/loc1_N_biomass_janprof.bin',
(PID.TID 0000.0001) ># tracer 35 - Nitrogen Biomass: Plankton(14)
(PID.TID 0000.0001) > PTRACERS_names(35)='BIO_2_014',
(PID.TID 0000.0001) > PTRACERS_units(35)='mmol N/m^3',
(PID.TID 0000.0001) > PTRACERS_advScheme(35)=33,
(PID.TID 0000.0001) > PTRACERS_diffKh(35)=0.E3,
(PID.TID 0000.0001) > PTRACERS_diffKr(35)=1.E-5,
(PID.TID 0000.0001) > PTRACERS_useGMRedi(35)=.FALSE.,
(PID.TID 0000.0001) > PTRACERS_useKPP(35)=.TRUE.,
(PID.TID 0000.0001) > PTRACERS_initialFile(35)='../input/input/loc1_N_biomass_janprof.bin',
(PID.TID 0000.0001) ># tracer 36 - Nitrogen Biomass: Plankton(15)
(PID.TID 0000.0001) > PTRACERS_names(36)='BIO_2_015',
(PID.TID 0000.0001) > PTRACERS_units(36)='mmol N/m^3',
(PID.TID 0000.0001) > PTRACERS_advScheme(36)=33,
(PID.TID 0000.0001) > PTRACERS_diffKh(36)=0.E3,
(PID.TID 0000.0001) > PTRACERS_diffKr(36)=1.E-5,
(PID.TID 0000.0001) > PTRACERS_useGMRedi(36)=.FALSE.,
(PID.TID 0000.0001) > PTRACERS_useKPP(36)=.TRUE.,
(PID.TID 0000.0001) > PTRACERS_initialFile(36)='../input/input/loc1_N_biomass_janprof.bin',
(PID.TID 0000.0001) ># tracer 37 - Nitrogen Biomass: Plankton(16)
(PID.TID 0000.0001) > PTRACERS_names(37)='BIO_2_016',
(PID.TID 0000.0001) > PTRACERS_units(37)='mmol N/m^3',
(PID.TID 0000.0001) > PTRACERS_advScheme(37)=33,
(PID.TID 0000.0001) > PTRACERS_diffKh(37)=0.E3,
(PID.TID 0000.0001) > PTRACERS_diffKr(37)=1.E-5,
(PID.TID 0000.0001) > PTRACERS_useGMRedi(37)=.FALSE.,
(PID.TID 0000.0001) > PTRACERS_useKPP(37)=.TRUE.,
(PID.TID 0000.0001) > PTRACERS_initialFile(37)='../input/input/loc1_N_biomass_janprof.bin',
(PID.TID 0000.0001) ># tracer 38 - Iron Biomass: Plankton(1)
(PID.TID 0000.0001) > PTRACERS_names(38)='BIO_3_001',
(PID.TID 0000.0001) > PTRACERS_units(38)='mmol Fe/m^3',
(PID.TID 0000.0001) > PTRACERS_advScheme(38)=33,
(PID.TID 0000.0001) > PTRACERS_diffKh(38)=0.E3,
(PID.TID 0000.0001) > PTRACERS_diffKr(38)=1.E-5,
(PID.TID 0000.0001) > PTRACERS_useGMRedi(38)=.FALSE.,
(PID.TID 0000.0001) > PTRACERS_useKPP(38)=.TRUE.,
(PID.TID 0000.0001) > PTRACERS_initialFile(38)='../input/input/loc1_Fe_biomass_janprof.bin',
(PID.TID 0000.0001) ># tracer 39 - Iron Biomass: Plankton(2)
(PID.TID 0000.0001) > PTRACERS_names(39)='BIO_3_002',
(PID.TID 0000.0001) > PTRACERS_units(39)='mmol Fe/m^3',
(PID.TID 0000.0001) > PTRACERS_advScheme(39)=33,
(PID.TID 0000.0001) > PTRACERS_diffKh(39)=0.E3,
(PID.TID 0000.0001) > PTRACERS_diffKr(39)=1.E-5,
(PID.TID 0000.0001) > PTRACERS_useGMRedi(39)=.FALSE.,
(PID.TID 0000.0001) > PTRACERS_useKPP(39)=.TRUE.,
(PID.TID 0000.0001) > PTRACERS_initialFile(39)='../input/input/loc1_Fe_biomass_janprof.bin',
(PID.TID 0000.0001) ># tracer 40 - Iron Biomass: Plankton(3)
(PID.TID 0000.0001) > PTRACERS_names(40)='BIO_3_003',
(PID.TID 0000.0001) > PTRACERS_units(40)='mmol Fe/m^3',
(PID.TID 0000.0001) > PTRACERS_advScheme(40)=33,
(PID.TID 0000.0001) > PTRACERS_diffKh(40)=0.E3,
(PID.TID 0000.0001) > PTRACERS_diffKr(40)=1.E-5,
(PID.TID 0000.0001) > PTRACERS_useGMRedi(40)=.FALSE.,
(PID.TID 0000.0001) > PTRACERS_useKPP(40)=.TRUE.,
(PID.TID 0000.0001) > PTRACERS_initialFile(40)='../input/input/loc1_Fe_biomass_janprof.bin',
(PID.TID 0000.0001) ># tracer 41 - Iron Biomass: Plankton(4)
(PID.TID 0000.0001) > PTRACERS_names(41)='BIO_3_004',
(PID.TID 0000.0001) > PTRACERS_units(41)='mmol Fe/m^3',
(PID.TID 0000.0001) > PTRACERS_advScheme(41)=33,
(PID.TID 0000.0001) > PTRACERS_diffKh(41)=0.E3,
(PID.TID 0000.0001) > PTRACERS_diffKr(41)=1.E-5,
(PID.TID 0000.0001) > PTRACERS_useGMRedi(41)=.FALSE.,
(PID.TID 0000.0001) > PTRACERS_useKPP(41)=.TRUE.,
(PID.TID 0000.0001) > PTRACERS_initialFile(41)='../input/input/loc1_Fe_biomass_janprof.bin',
(PID.TID 0000.0001) ># tracer 42 - Iron Biomass: Plankton(5)
(PID.TID 0000.0001) > PTRACERS_names(42)='BIO_3_005',
(PID.TID 0000.0001) > PTRACERS_units(42)='mmol Fe/m^3',
(PID.TID 0000.0001) > PTRACERS_advScheme(42)=33,
(PID.TID 0000.0001) > PTRACERS_diffKh(42)=0.E3,
(PID.TID 0000.0001) > PTRACERS_diffKr(42)=1.E-5,
(PID.TID 0000.0001) > PTRACERS_useGMRedi(42)=.FALSE.,
(PID.TID 0000.0001) > PTRACERS_useKPP(42)=.TRUE.,
(PID.TID 0000.0001) > PTRACERS_initialFile(42)='../input/input/loc1_Fe_biomass_janprof.bin',
(PID.TID 0000.0001) ># tracer 43 - Iron Biomass: Plankton(6)
(PID.TID 0000.0001) > PTRACERS_names(43)='BIO_3_006',
(PID.TID 0000.0001) > PTRACERS_units(43)='mmol Fe/m^3',
(PID.TID 0000.0001) > PTRACERS_advScheme(43)=33,
(PID.TID 0000.0001) > PTRACERS_diffKh(43)=0.E3,
(PID.TID 0000.0001) > PTRACERS_diffKr(43)=1.E-5,
(PID.TID 0000.0001) > PTRACERS_useGMRedi(43)=.FALSE.,
(PID.TID 0000.0001) > PTRACERS_useKPP(43)=.TRUE.,
(PID.TID 0000.0001) > PTRACERS_initialFile(43)='../input/input/loc1_Fe_biomass_janprof.bin',
(PID.TID 0000.0001) ># tracer 44 - Iron Biomass: Plankton(7)
(PID.TID 0000.0001) > PTRACERS_names(44)='BIO_3_007',
(PID.TID 0000.0001) > PTRACERS_units(44)='mmol Fe/m^3',
(PID.TID 0000.0001) > PTRACERS_advScheme(44)=33,
(PID.TID 0000.0001) > PTRACERS_diffKh(44)=0.E3,
(PID.TID 0000.0001) > PTRACERS_diffKr(44)=1.E-5,
(PID.TID 0000.0001) > PTRACERS_useGMRedi(44)=.FALSE.,
(PID.TID 0000.0001) > PTRACERS_useKPP(44)=.TRUE.,
(PID.TID 0000.0001) > PTRACERS_initialFile(44)='../input/input/loc1_Fe_biomass_janprof.bin',
(PID.TID 0000.0001) ># tracer 45 - Iron Biomass: Plankton(8)
(PID.TID 0000.0001) > PTRACERS_names(45)='BIO_3_008',
(PID.TID 0000.0001) > PTRACERS_units(45)='mmol Fe/m^3',
(PID.TID 0000.0001) > PTRACERS_advScheme(45)=33,
(PID.TID 0000.0001) > PTRACERS_diffKh(45)=0.E3,
(PID.TID 0000.0001) > PTRACERS_diffKr(45)=1.E-5,
(PID.TID 0000.0001) > PTRACERS_useGMRedi(45)=.FALSE.,
(PID.TID 0000.0001) > PTRACERS_useKPP(45)=.TRUE.,
(PID.TID 0000.0001) > PTRACERS_initialFile(45)='../input/input/loc1_Fe_biomass_janprof.bin',
(PID.TID 0000.0001) ># tracer 46 - Iron Biomass: Plankton(9)
(PID.TID 0000.0001) > PTRACERS_names(46)='BIO_3_009',
(PID.TID 0000.0001) > PTRACERS_units(46)='mmol Fe/m^3',
(PID.TID 0000.0001) > PTRACERS_advScheme(46)=33,
(PID.TID 0000.0001) > PTRACERS_diffKh(46)=0.E3,
(PID.TID 0000.0001) > PTRACERS_diffKr(46)=1.E-5,
(PID.TID 0000.0001) > PTRACERS_useGMRedi(46)=.FALSE.,
(PID.TID 0000.0001) > PTRACERS_useKPP(46)=.TRUE.,
(PID.TID 0000.0001) > PTRACERS_initialFile(46)='../input/input/loc1_Fe_biomass_janprof.bin',
(PID.TID 0000.0001) ># tracer 47 - Iron Biomass: Plankton(10)
(PID.TID 0000.0001) > PTRACERS_names(47)='BIO_3_010',
(PID.TID 0000.0001) > PTRACERS_units(47)='mmol Fe/m^3',
(PID.TID 0000.0001) > PTRACERS_advScheme(47)=33,
(PID.TID 0000.0001) > PTRACERS_diffKh(47)=0.E3,
(PID.TID 0000.0001) > PTRACERS_diffKr(47)=1.E-5,
(PID.TID 0000.0001) > PTRACERS_useGMRedi(47)=.FALSE.,
(PID.TID 0000.0001) > PTRACERS_useKPP(47)=.TRUE.,
(PID.TID 0000.0001) > PTRACERS_initialFile(47)='../input/input/loc1_Fe_biomass_janprof.bin',
(PID.TID 0000.0001) ># tracer 48 - Iron Biomass: Plankton(11)
(PID.TID 0000.0001) > PTRACERS_names(48)='BIO_3_011',
(PID.TID 0000.0001) > PTRACERS_units(48)='mmol Fe/m^3',
(PID.TID 0000.0001) > PTRACERS_advScheme(48)=33,
(PID.TID 0000.0001) > PTRACERS_diffKh(48)=0.E3,
(PID.TID 0000.0001) > PTRACERS_diffKr(48)=1.E-5,
(PID.TID 0000.0001) > PTRACERS_useGMRedi(48)=.FALSE.,
(PID.TID 0000.0001) > PTRACERS_useKPP(48)=.TRUE.,
(PID.TID 0000.0001) > PTRACERS_initialFile(48)='../input/input/loc1_Fe_biomass_janprof.bin',
(PID.TID 0000.0001) ># tracer 49 - Iron Biomass: Plankton(12)
(PID.TID 0000.0001) > PTRACERS_names(49)='BIO_3_012',
(PID.TID 0000.0001) > PTRACERS_units(49)='mmol Fe/m^3',
(PID.TID 0000.0001) > PTRACERS_advScheme(49)=33,
(PID.TID 0000.0001) > PTRACERS_diffKh(49)=0.E3,
(PID.TID 0000.0001) > PTRACERS_diffKr(49)=1.E-5,
(PID.TID 0000.0001) > PTRACERS_useGMRedi(49)=.FALSE.,
(PID.TID 0000.0001) > PTRACERS_useKPP(49)=.TRUE.,
(PID.TID 0000.0001) > PTRACERS_initialFile(49)='../input/input/loc1_Fe_biomass_janprof.bin',
(PID.TID 0000.0001) ># tracer 50 - Iron Biomass: Plankton(13)
(PID.TID 0000.0001) > PTRACERS_names(50)='BIO_3_013',
(PID.TID 0000.0001) > PTRACERS_units(50)='mmol Fe/m^3',
(PID.TID 0000.0001) > PTRACERS_advScheme(50)=33,
(PID.TID 0000.0001) > PTRACERS_diffKh(50)=0.E3,
(PID.TID 0000.0001) > PTRACERS_diffKr(50)=1.E-5,
(PID.TID 0000.0001) > PTRACERS_useGMRedi(50)=.FALSE.,
(PID.TID 0000.0001) > PTRACERS_useKPP(50)=.TRUE.,
(PID.TID 0000.0001) > PTRACERS_initialFile(50)='../input/input/loc1_Fe_biomass_janprof.bin',
(PID.TID 0000.0001) ># tracer 51 - Iron Biomass: Plankton(14)
(PID.TID 0000.0001) > PTRACERS_names(51)='BIO_3_014',
(PID.TID 0000.0001) > PTRACERS_units(51)='mmol Fe/m^3',
(PID.TID 0000.0001) > PTRACERS_advScheme(51)=33,
(PID.TID 0000.0001) > PTRACERS_diffKh(51)=0.E3,
(PID.TID 0000.0001) > PTRACERS_diffKr(51)=1.E-5,
(PID.TID 0000.0001) > PTRACERS_useGMRedi(51)=.FALSE.,
(PID.TID 0000.0001) > PTRACERS_useKPP(51)=.TRUE.,
(PID.TID 0000.0001) > PTRACERS_initialFile(51)='../input/input/loc1_Fe_biomass_janprof.bin',
(PID.TID 0000.0001) ># tracer 52 - Iron Biomass: Plankton(15)
(PID.TID 0000.0001) > PTRACERS_names(52)='BIO_3_015',
(PID.TID 0000.0001) > PTRACERS_units(52)='mmol Fe/m^3',
(PID.TID 0000.0001) > PTRACERS_advScheme(52)=33,
(PID.TID 0000.0001) > PTRACERS_diffKh(52)=0.E3,
(PID.TID 0000.0001) > PTRACERS_diffKr(52)=1.E-5,
(PID.TID 0000.0001) > PTRACERS_useGMRedi(52)=.FALSE.,
(PID.TID 0000.0001) > PTRACERS_useKPP(52)=.TRUE.,
(PID.TID 0000.0001) > PTRACERS_initialFile(52)='../input/input/loc1_Fe_biomass_janprof.bin',
(PID.TID 0000.0001) ># tracer 53 - Iron Biomass: Plankton(16)
(PID.TID 0000.0001) > PTRACERS_names(53)='BIO_3_016',
(PID.TID 0000.0001) > PTRACERS_units(53)='mmol Fe/m^3',
(PID.TID 0000.0001) > PTRACERS_advScheme(53)=33,
(PID.TID 0000.0001) > PTRACERS_diffKh(53)=0.E3,
(PID.TID 0000.0001) > PTRACERS_diffKr(53)=1.E-5,
(PID.TID 0000.0001) > PTRACERS_useGMRedi(53)=.FALSE.,
(PID.TID 0000.0001) > PTRACERS_useKPP(53)=.TRUE.,
(PID.TID 0000.0001) > PTRACERS_initialFile(53)='../input/input/loc1_Fe_biomass_janprof.bin',
(PID.TID 0000.0001) ># tracer 54 - Chlorophyll Biomass: Plankton(1)
(PID.TID 0000.0001) > PTRACERS_names(54)='BIO_4_001',
(PID.TID 0000.0001) > PTRACERS_units(54)='mg Chl/m^3',
(PID.TID 0000.0001) > PTRACERS_advScheme(54)=33,
(PID.TID 0000.0001) > PTRACERS_diffKh(54)=0.E3,
(PID.TID 0000.0001) > PTRACERS_diffKr(54)=1.E-5,
(PID.TID 0000.0001) > PTRACERS_useGMRedi(54)=.FALSE.,
(PID.TID 0000.0001) > PTRACERS_useKPP(54)=.TRUE.,
(PID.TID 0000.0001) > PTRACERS_initialFile(54)='../input/input/loc1_chlorophyll_janprof.bin',
(PID.TID 0000.0001) ># tracer 55 - Chlorophyll Biomass: Plankton(2)
(PID.TID 0000.0001) > PTRACERS_names(55)='BIO_4_002',
(PID.TID 0000.0001) > PTRACERS_units(55)='mg Chl/m^3',
(PID.TID 0000.0001) > PTRACERS_advScheme(55)=33,
(PID.TID 0000.0001) > PTRACERS_diffKh(55)=0.E3,
(PID.TID 0000.0001) > PTRACERS_diffKr(55)=1.E-5,
(PID.TID 0000.0001) > PTRACERS_useGMRedi(55)=.FALSE.,
(PID.TID 0000.0001) > PTRACERS_useKPP(55)=.TRUE.,
(PID.TID 0000.0001) > PTRACERS_initialFile(55)='../input/input/loc1_chlorophyll_janprof.bin',
(PID.TID 0000.0001) ># tracer 56 - Chlorophyll Biomass: Plankton(3)
(PID.TID 0000.0001) > PTRACERS_names(56)='BIO_4_003',
(PID.TID 0000.0001) > PTRACERS_units(56)='mg Chl/m^3',
(PID.TID 0000.0001) > PTRACERS_advScheme(56)=33,
(PID.TID 0000.0001) > PTRACERS_diffKh(56)=0.E3,
(PID.TID 0000.0001) > PTRACERS_diffKr(56)=1.E-5,
(PID.TID 0000.0001) > PTRACERS_useGMRedi(56)=.FALSE.,
(PID.TID 0000.0001) > PTRACERS_useKPP(56)=.TRUE.,
(PID.TID 0000.0001) > PTRACERS_initialFile(56)='../input/input/loc1_chlorophyll_janprof.bin',
(PID.TID 0000.0001) ># tracer 57 - Chlorophyll Biomass: Plankton(4)
(PID.TID 0000.0001) > PTRACERS_names(57)='BIO_4_004',
(PID.TID 0000.0001) > PTRACERS_units(57)='mg Chl/m^3',
(PID.TID 0000.0001) > PTRACERS_advScheme(57)=33,
(PID.TID 0000.0001) > PTRACERS_diffKh(57)=0.E3,
(PID.TID 0000.0001) > PTRACERS_diffKr(57)=1.E-5,
(PID.TID 0000.0001) > PTRACERS_useGMRedi(57)=.FALSE.,
(PID.TID 0000.0001) > PTRACERS_useKPP(57)=.TRUE.,
(PID.TID 0000.0001) > PTRACERS_initialFile(57)='../input/input/loc1_chlorophyll_janprof.bin',
(PID.TID 0000.0001) ># tracer 58 - Chlorophyll Biomass: Plankton(5)
(PID.TID 0000.0001) > PTRACERS_names(58)='BIO_4_005',
(PID.TID 0000.0001) > PTRACERS_units(58)='mg Chl/m^3',
(PID.TID 0000.0001) > PTRACERS_advScheme(58)=33,
(PID.TID 0000.0001) > PTRACERS_diffKh(58)=0.E3,
(PID.TID 0000.0001) > PTRACERS_diffKr(58)=1.E-5,
(PID.TID 0000.0001) > PTRACERS_useGMRedi(58)=.FALSE.,
(PID.TID 0000.0001) > PTRACERS_useKPP(58)=.TRUE.,
(PID.TID 0000.0001) > PTRACERS_initialFile(58)='../input/input/loc1_chlorophyll_janprof.bin',
(PID.TID 0000.0001) ># tracer 59 - Chlorophyll Biomass: Plankton(6)
(PID.TID 0000.0001) > PTRACERS_names(59)='BIO_4_006',
(PID.TID 0000.0001) > PTRACERS_units(59)='mg Chl/m^3',
(PID.TID 0000.0001) > PTRACERS_advScheme(59)=33,
(PID.TID 0000.0001) > PTRACERS_diffKh(59)=0.E3,
(PID.TID 0000.0001) > PTRACERS_diffKr(59)=1.E-5,
(PID.TID 0000.0001) > PTRACERS_useGMRedi(59)=.FALSE.,
(PID.TID 0000.0001) > PTRACERS_useKPP(59)=.TRUE.,
(PID.TID 0000.0001) > PTRACERS_initialFile(59)='../input/input/loc1_chlorophyll_janprof.bin',
(PID.TID 0000.0001) ># tracer 60 - Chlorophyll Biomass: Plankton(7)
(PID.TID 0000.0001) > PTRACERS_names(60)='BIO_4_007',
(PID.TID 0000.0001) > PTRACERS_units(60)='mg Chl/m^3',
(PID.TID 0000.0001) > PTRACERS_advScheme(60)=33,
(PID.TID 0000.0001) > PTRACERS_diffKh(60)=0.E3,
(PID.TID 0000.0001) > PTRACERS_diffKr(60)=1.E-5,
(PID.TID 0000.0001) > PTRACERS_useGMRedi(60)=.FALSE.,
(PID.TID 0000.0001) > PTRACERS_useKPP(60)=.TRUE.,
(PID.TID 0000.0001) > PTRACERS_initialFile(60)='../input/input/loc1_chlorophyll_janprof.bin',
(PID.TID 0000.0001) ># tracer 61 - Chlorophyll Biomass: Plankton(8)
(PID.TID 0000.0001) > PTRACERS_names(61)='BIO_4_008',
(PID.TID 0000.0001) > PTRACERS_units(61)='mg Chl/m^3',
(PID.TID 0000.0001) > PTRACERS_advScheme(61)=33,
(PID.TID 0000.0001) > PTRACERS_diffKh(61)=0.E3,
(PID.TID 0000.0001) > PTRACERS_diffKr(61)=1.E-5,
(PID.TID 0000.0001) > PTRACERS_useGMRedi(61)=.FALSE.,
(PID.TID 0000.0001) > PTRACERS_useKPP(61)=.TRUE.,
(PID.TID 0000.0001) > PTRACERS_initialFile(61)='../input/input/loc1_chlorophyll_janprof.bin',
(PID.TID 0000.0001) ># tracer 62 - Chlorophyll Biomass: Plankton(9)
(PID.TID 0000.0001) > PTRACERS_names(62)='BIO_4_009',
(PID.TID 0000.0001) > PTRACERS_units(62)='mg Chl/m^3',
(PID.TID 0000.0001) > PTRACERS_advScheme(62)=33,
(PID.TID 0000.0001) > PTRACERS_diffKh(62)=0.E3,
(PID.TID 0000.0001) > PTRACERS_diffKr(62)=1.E-5,
(PID.TID 0000.0001) > PTRACERS_useGMRedi(62)=.FALSE.,
(PID.TID 0000.0001) > PTRACERS_useKPP(62)=.TRUE.,
(PID.TID 0000.0001) > PTRACERS_initialFile(62)='../input/input/loc1_chlorophyll_janprof.bin',
(PID.TID 0000.0001) ># tracer 63 - Chlorophyll Biomass: Plankton(10)
(PID.TID 0000.0001) > PTRACERS_names(63)='BIO_4_010',
(PID.TID 0000.0001) > PTRACERS_units(63)='mg Chl/m^3',
(PID.TID 0000.0001) > PTRACERS_advScheme(63)=33,
(PID.TID 0000.0001) > PTRACERS_diffKh(63)=0.E3,
(PID.TID 0000.0001) > PTRACERS_diffKr(63)=1.E-5,
(PID.TID 0000.0001) > PTRACERS_useGMRedi(63)=.FALSE.,
(PID.TID 0000.0001) > PTRACERS_useKPP(63)=.TRUE.,
(PID.TID 0000.0001) > PTRACERS_initialFile(63)='../input/input/loc1_chlorophyll_janprof.bin',
(PID.TID 0000.0001) ># tracer 64 - Chlorophyll Biomass: Plankton(11)
(PID.TID 0000.0001) > PTRACERS_names(64)='BIO_4_011',
(PID.TID 0000.0001) > PTRACERS_units(64)='mg Chl/m^3',
(PID.TID 0000.0001) > PTRACERS_advScheme(64)=33,
(PID.TID 0000.0001) > PTRACERS_diffKh(64)=0.E3,
(PID.TID 0000.0001) > PTRACERS_diffKr(64)=1.E-5,
(PID.TID 0000.0001) > PTRACERS_useGMRedi(64)=.FALSE.,
(PID.TID 0000.0001) > PTRACERS_useKPP(64)=.TRUE.,
(PID.TID 0000.0001) > PTRACERS_initialFile(64)='../input/input/loc1_chlorophyll_janprof.bin',
(PID.TID 0000.0001) ># tracer 65 - Chlorophyll Biomass: Plankton(12)
(PID.TID 0000.0001) > PTRACERS_names(65)='BIO_4_012',
(PID.TID 0000.0001) > PTRACERS_units(65)='mg Chl/m^3',
(PID.TID 0000.0001) > PTRACERS_advScheme(65)=33,
(PID.TID 0000.0001) > PTRACERS_diffKh(65)=0.E3,
(PID.TID 0000.0001) > PTRACERS_diffKr(65)=1.E-5,
(PID.TID 0000.0001) > PTRACERS_useGMRedi(65)=.FALSE.,
(PID.TID 0000.0001) > PTRACERS_useKPP(65)=.TRUE.,
(PID.TID 0000.0001) > PTRACERS_initialFile(65)='../input/input/loc1_chlorophyll_janprof.bin',
(PID.TID 0000.0001) ># tracer 66 - Chlorophyll Biomass: Plankton(13)
(PID.TID 0000.0001) > PTRACERS_names(66)='BIO_4_013',
(PID.TID 0000.0001) > PTRACERS_units(66)='mg Chl/m^3',
(PID.TID 0000.0001) > PTRACERS_advScheme(66)=33,
(PID.TID 0000.0001) > PTRACERS_diffKh(66)=0.E3,
(PID.TID 0000.0001) > PTRACERS_diffKr(66)=1.E-5,
(PID.TID 0000.0001) > PTRACERS_useGMRedi(66)=.FALSE.,
(PID.TID 0000.0001) > PTRACERS_useKPP(66)=.TRUE.,
(PID.TID 0000.0001) > PTRACERS_initialFile(66)='../input/input/loc1_chlorophyll_janprof.bin',
(PID.TID 0000.0001) ># tracer 67 - Chlorophyll Biomass: Plankton(14)
(PID.TID 0000.0001) > PTRACERS_names(67)='BIO_4_014',
(PID.TID 0000.0001) > PTRACERS_units(67)='mg Chl/m^3',
(PID.TID 0000.0001) > PTRACERS_advScheme(67)=33,
(PID.TID 0000.0001) > PTRACERS_diffKh(67)=0.E3,
(PID.TID 0000.0001) > PTRACERS_diffKr(67)=1.E-5,
(PID.TID 0000.0001) > PTRACERS_useGMRedi(67)=.FALSE.,
(PID.TID 0000.0001) > PTRACERS_useKPP(67)=.TRUE.,
(PID.TID 0000.0001) > PTRACERS_initialFile(67)='../input/input/loc1_chlorophyll_janprof.bin',
(PID.TID 0000.0001) ># tracer 68 - Chlorophyll Biomass: Plankton(15)
(PID.TID 0000.0001) > PTRACERS_names(68)='BIO_4_015',
(PID.TID 0000.0001) > PTRACERS_units(68)='mg Chl/m^3',
(PID.TID 0000.0001) > PTRACERS_advScheme(68)=33,
(PID.TID 0000.0001) > PTRACERS_diffKh(68)=0.E3,
(PID.TID 0000.0001) > PTRACERS_diffKr(68)=1.E-5,
(PID.TID 0000.0001) > PTRACERS_useGMRedi(68)=.FALSE.,
(PID.TID 0000.0001) > PTRACERS_useKPP(68)=.TRUE.,
(PID.TID 0000.0001) > PTRACERS_initialFile(68)='../input/input/loc1_chlorophyll_janprof.bin',
(PID.TID 0000.0001) ># tracer 69 - Dissolved Organic Carbon
(PID.TID 0000.0001) > PTRACERS_names(69)='OM_1_1',
(PID.TID 0000.0001) > PTRACERS_units(69)='mmol C/m^3',
(PID.TID 0000.0001) > PTRACERS_advScheme(69)=33,
(PID.TID 0000.0001) > PTRACERS_diffKh(69)=0.E3,
(PID.TID 0000.0001) > PTRACERS_diffKr(69)=1.E-5,
(PID.TID 0000.0001) > PTRACERS_useGMRedi(69)=.FALSE.,
(PID.TID 0000.0001) > PTRACERS_useKPP(69)=.TRUE.,
(PID.TID 0000.0001) > PTRACERS_initialFile(69)='../input/input/loc1_DOC_janprof.bin',
(PID.TID 0000.0001) ># tracer 70 - Particulate Organic Carbon
(PID.TID 0000.0001) > PTRACERS_names(70)='OM_1_2',
(PID.TID 0000.0001) > PTRACERS_units(70)='mmol C/m^3',
(PID.TID 0000.0001) > PTRACERS_advScheme(70)=33,
(PID.TID 0000.0001) > PTRACERS_diffKh(70)=0.E3,
(PID.TID 0000.0001) > PTRACERS_diffKr(70)=1.E-5,
(PID.TID 0000.0001) > PTRACERS_useGMRedi(70)=.FALSE.,
(PID.TID 0000.0001) > PTRACERS_useKPP(70)=.TRUE.,
(PID.TID 0000.0001) > PTRACERS_initialFile(70)='../input/input/loc1_POC_janprof.bin',
(PID.TID 0000.0001) ># tracer 71 - Dissolved Organic Nitrogen
(PID.TID 0000.0001) > PTRACERS_names(71)='OM_2_1',
(PID.TID 0000.0001) > PTRACERS_units(71)='mmol N/m^3',
(PID.TID 0000.0001) > PTRACERS_advScheme(71)=33,
(PID.TID 0000.0001) > PTRACERS_diffKh(71)=0.E3,
(PID.TID 0000.0001) > PTRACERS_diffKr(71)=1.E-5,
(PID.TID 0000.0001) > PTRACERS_useGMRedi(71)=.FALSE.,
(PID.TID 0000.0001) > PTRACERS_useKPP(71)=.TRUE.,
(PID.TID 0000.0001) > PTRACERS_initialFile(71)='../input/input/loc1_DON_run83_janprof.bin',
(PID.TID 0000.0001) ># tracer 72 - Particulate Organic Nitrogen
(PID.TID 0000.0001) > PTRACERS_names(72)='OM_2_2',
(PID.TID 0000.0001) > PTRACERS_units(72)='mmol N/m^3',
(PID.TID 0000.0001) > PTRACERS_advScheme(72)=33,
(PID.TID 0000.0001) > PTRACERS_diffKh(72)=0.E3,
(PID.TID 0000.0001) > PTRACERS_diffKr(72)=1.E-5,
(PID.TID 0000.0001) > PTRACERS_useGMRedi(72)=.FALSE.,
(PID.TID 0000.0001) > PTRACERS_useKPP(72)=.TRUE.,
(PID.TID 0000.0001) > PTRACERS_initialFile(72)='../input/input/loc1_PON_run83_janprof.bin',
(PID.TID 0000.0001) ># tracer 73 - Dissolved Organic Iron
(PID.TID 0000.0001) > PTRACERS_names(73)='OM_3_1',
(PID.TID 0000.0001) > PTRACERS_units(73)='mmol Fe/m^3',
(PID.TID 0000.0001) > PTRACERS_advScheme(73)=33,
(PID.TID 0000.0001) > PTRACERS_diffKh(73)=0.E3,
(PID.TID 0000.0001) > PTRACERS_diffKr(73)=1.E-5,
(PID.TID 0000.0001) > PTRACERS_useGMRedi(73)=.FALSE.,
(PID.TID 0000.0001) > PTRACERS_useKPP(73)=.TRUE.,
(PID.TID 0000.0001) > PTRACERS_initialFile(73)='../input/input/loc1_DOFe_run83_janprof.bin',
(PID.TID 0000.0001) ># tracer 74 - Particulate Organic Iron
(PID.TID 0000.0001) > PTRACERS_names(74)='OM_3_2',
(PID.TID 0000.0001) > PTRACERS_units(74)='mmol Fe/m^3',
(PID.TID 0000.0001) > PTRACERS_advScheme(74)=33,
(PID.TID 0000.0001) > PTRACERS_diffKh(74)=0.E3,
(PID.TID 0000.0001) > PTRACERS_diffKr(74)=1.E-5,
(PID.TID 0000.0001) > PTRACERS_useGMRedi(74)=.FALSE.,
(PID.TID 0000.0001) > PTRACERS_useKPP(74)=.TRUE.,
(PID.TID 0000.0001) > PTRACERS_initialFile(74)='../input/input/loc1_POFe_run83_janprof.bin',
(PID.TID 0000.0001) > /
(PID.TID 0000.0001) 
(PID.TID 0000.0001)  PTRACERS_READPARMS: finished reading data.ptracers
(PID.TID 0000.0001)  GCHEM_READPARMS: opening data.gchem
(PID.TID 0000.0001)  OPEN_COPY_DATA_FILE: opening file data.gchem
(PID.TID 0000.0001) // =======================================================
(PID.TID 0000.0001) // Parameter file "data.gchem"
(PID.TID 0000.0001) // =======================================================
(PID.TID 0000.0001) > &GCHEM_PARM01
(PID.TID 0000.0001) >  useDARWIN=.TRUE.,
(PID.TID 0000.0001) >  nsubtime=3,
(PID.TID 0000.0001) > /
(PID.TID 0000.0001) 
(PID.TID 0000.0001)  GCHEM_READPARMS: finished reading data.gchem
(PID.TID 0000.0001)  DARWIN_READPARMS: opening data.darwin
(PID.TID 0000.0001)  OPEN_COPY_DATA_FILE: opening file data.darwin
(PID.TID 0000.0001) // =======================================================
(PID.TID 0000.0001) // Parameter file "data.darwin"
(PID.TID 0000.0001) // =======================================================
(PID.TID 0000.0001) > &DARWIN_FORCING
(PID.TID 0000.0001) > darwin_ironFile='../input/input/loc1_FeFlux_monsurf.bin',
(PID.TID 0000.0001) > darwin_PARFile='../input/input/loc1_PAR_monsurf.bin',
(PID.TID 0000.0001) > darwin_ForcingPeriod=2592000.,
(PID.TID 0000.0001) > darwin_ForcingCycle=31104000.,
(PID.TID 0000.0001) >#darwin_PO4_fluxFile='../input/input/ann_nphos_flux.bin',
(PID.TID 0000.0001) >#darwin_NO3_fluxFile='../input/input/ann_nnitr_flux.bin',
(PID.TID 0000.0001) >#darwin_Si_fluxFile='../input/input/ann_nsil_flux.bin',
(PID.TID 0000.0001) > darwin_seed=11231,
(PID.TID 0000.0001) > /
(PID.TID 0000.0001) 
(PID.TID 0000.0001)  DARWIN_READPARMS: finished reading data.darwin
(PID.TID 0000.0001) // ===================================
(PID.TID 0000.0001) // darwin parameters
(PID.TID 0000.0001) // ===================================
(PID.TID 0000.0001) darwin_seed = /* seed for random number generator */
(PID.TID 0000.0001)                   11231
(PID.TID 0000.0001)     ;
(PID.TID 0000.0001)  -----------------------------------
(PID.TID 0000.0001)  ===================================
(PID.TID 0000.0001) SET_PARMS: done
(PID.TID 0000.0001) Enter INI_VERTICAL_GRID: setInterFDr=    T ; setCenterDr=    F
(PID.TID 0000.0001) %MON XC_max                       =   3.3550000000000E+02
(PID.TID 0000.0001) %MON XC_min                       =   3.3550000000000E+02
(PID.TID 0000.0001) %MON XC_mean                      =   3.3550000000000E+02
(PID.TID 0000.0001) %MON XC_sd                        =   0.0000000000000E+00
(PID.TID 0000.0001) %MON XG_max                       =   3.3500000000000E+02
(PID.TID 0000.0001) %MON XG_min                       =   3.3500000000000E+02
(PID.TID 0000.0001) %MON XG_mean                      =   3.3500000000000E+02
(PID.TID 0000.0001) %MON XG_sd                        =   0.0000000000000E+00
(PID.TID 0000.0001) %MON DXC_max                      =   1.0603184087720E+05
(PID.TID 0000.0001) %MON DXC_min                      =   1.0603184087720E+05
(PID.TID 0000.0001) %MON DXC_mean                     =   1.0603184087720E+05
(PID.TID 0000.0001) %MON DXC_sd                       =   0.0000000000000E+00
(PID.TID 0000.0001) %MON DXF_max                      =   1.0603184087720E+05
(PID.TID 0000.0001) %MON DXF_min                      =   1.0603184087720E+05
(PID.TID 0000.0001) %MON DXF_mean                     =   1.0603184087720E+05
(PID.TID 0000.0001) %MON DXF_sd                       =   0.0000000000000E+00
(PID.TID 0000.0001) %MON DXG_max                      =   1.0573606049669E+05
(PID.TID 0000.0001) %MON DXG_min                      =   1.0573606049669E+05
(PID.TID 0000.0001) %MON DXG_mean                     =   1.0573606049669E+05
(PID.TID 0000.0001) %MON DXG_sd                       =   0.0000000000000E+00
(PID.TID 0000.0001) %MON DXV_max                      =   1.0573606049669E+05
(PID.TID 0000.0001) %MON DXV_min                      =   1.0573606049669E+05
(PID.TID 0000.0001) %MON DXV_mean                     =   1.0573606049669E+05
(PID.TID 0000.0001) %MON DXV_sd                       =   0.0000000000000E+00
(PID.TID 0000.0001) %MON YC_max                       =  -1.7500000000000E+01
(PID.TID 0000.0001) %MON YC_min                       =  -1.7500000000000E+01
(PID.TID 0000.0001) %MON YC_mean                      =  -1.7500000000000E+01
(PID.TID 0000.0001) %MON YC_sd                        =   0.0000000000000E+00
(PID.TID 0000.0001) %MON YG_max                       =  -1.8000000000000E+01
(PID.TID 0000.0001) %MON YG_min                       =  -1.8000000000000E+01
(PID.TID 0000.0001) %MON YG_mean                      =  -1.8000000000000E+01
(PID.TID 0000.0001) %MON YG_sd                        =   0.0000000000000E+00
(PID.TID 0000.0001) %MON DYC_max                      =   1.1117747335204E+05
(PID.TID 0000.0001) %MON DYC_min                      =   1.1117747335204E+05
(PID.TID 0000.0001) %MON DYC_mean                     =   1.1117747335204E+05
(PID.TID 0000.0001) %MON DYC_sd                       =   0.0000000000000E+00
(PID.TID 0000.0001) %MON DYF_max                      =   1.1117747335204E+05
(PID.TID 0000.0001) %MON DYF_min                      =   1.1117747335204E+05
(PID.TID 0000.0001) %MON DYF_mean                     =   1.1117747335204E+05
(PID.TID 0000.0001) %MON DYF_sd                       =   0.0000000000000E+00
(PID.TID 0000.0001) %MON DYG_max                      =   1.1117747335204E+05
(PID.TID 0000.0001) %MON DYG_min                      =   1.1117747335204E+05
(PID.TID 0000.0001) %MON DYG_mean                     =   1.1117747335204E+05
(PID.TID 0000.0001) %MON DYG_sd                       =   0.0000000000000E+00
(PID.TID 0000.0001) %MON DYU_max                      =   1.1117747335204E+05
(PID.TID 0000.0001) %MON DYU_min                      =   1.1117747335204E+05
(PID.TID 0000.0001) %MON DYU_mean                     =   1.1117747335204E+05
(PID.TID 0000.0001) %MON DYU_sd                       =   0.0000000000000E+00
(PID.TID 0000.0001) %MON RA_max                       =   1.1788202541770E+10
(PID.TID 0000.0001) %MON RA_min                       =   1.1788202541770E+10
(PID.TID 0000.0001) %MON RA_mean                      =   1.1788202541770E+10
(PID.TID 0000.0001) %MON RA_sd                        =   0.0000000000000E+00
(PID.TID 0000.0001) %MON RAW_max                      =   1.1788202541770E+10
(PID.TID 0000.0001) %MON RAW_min                      =   1.1788202541770E+10
(PID.TID 0000.0001) %MON RAW_mean                     =   1.1788202541770E+10
(PID.TID 0000.0001) %MON RAW_sd                       =   0.0000000000000E+00
(PID.TID 0000.0001) %MON RAS_max                      =   1.1755318843774E+10
(PID.TID 0000.0001) %MON RAS_min                      =   1.1755318843774E+10
(PID.TID 0000.0001) %MON RAS_mean                     =   1.1755318843774E+10
(PID.TID 0000.0001) %MON RAS_sd                       =   0.0000000000000E+00
(PID.TID 0000.0001) %MON RAZ_max                      =   1.1755318843774E+10
(PID.TID 0000.0001) %MON RAZ_min                      =   1.1755318843774E+10
(PID.TID 0000.0001) %MON RAZ_mean                     =   1.1755318843774E+10
(PID.TID 0000.0001) %MON RAZ_sd                       =   0.0000000000000E+00
(PID.TID 0000.0001) %MON AngleCS_max                  =   1.0000000000000E+00
(PID.TID 0000.0001) %MON AngleCS_min                  =   1.0000000000000E+00
(PID.TID 0000.0001) %MON AngleCS_mean                 =   1.0000000000000E+00
(PID.TID 0000.0001) %MON AngleCS_sd                   =   0.0000000000000E+00
(PID.TID 0000.0001) %MON AngleSN_max                  =   0.0000000000000E+00
(PID.TID 0000.0001) %MON AngleSN_min                  =   0.0000000000000E+00
(PID.TID 0000.0001) %MON AngleSN_mean                 =   0.0000000000000E+00
(PID.TID 0000.0001) %MON AngleSN_sd                   =   0.0000000000000E+00
(PID.TID 0000.0001)  MDS_READ_FIELD: opening global file: ../input/input/bathyneg.bin
(PID.TID 0000.0001) // =======================================================
(PID.TID 0000.0001) // Field Model R_low (ini_masks_etc)
(PID.TID 0000.0001) // CMIN =         -3.495000000000000E+03
(PID.TID 0000.0001) // CMAX =         -3.495000000000000E+03
(PID.TID 0000.0001) // CINT =          0.000000000000000E+00
(PID.TID 0000.0001) // SYMBOLS (CMIN->CMAX): -abcdefghijklmnopqrstuvwxyz+
(PID.TID 0000.0001) //                  0.0: .
(PID.TID 0000.0001) // RANGE I (Lo:Hi:Step):(    -1:     3:     1)
(PID.TID 0000.0001) // RANGE J (Lo:Hi:Step):(     3:    -1:    -1)
(PID.TID 0000.0001) // RANGE K (Lo:Hi:Step):(   1:   1:   1)
(PID.TID 0000.0001) // =======================================================
(PID.TID 0000.0001) // =======================================================
(PID.TID 0000.0001) // END OF FIELD                                          =
(PID.TID 0000.0001) // =======================================================
(PID.TID 0000.0001) 
(PID.TID 0000.0001) // =======================================================
(PID.TID 0000.0001) // Field Model Ro_surf (ini_masks_etc)
(PID.TID 0000.0001) // CMIN =          1.000000000000000E+32
(PID.TID 0000.0001) // CMAX =         -1.000000000000000E+32
(PID.TID 0000.0001) // CINT =          0.000000000000000E+00
(PID.TID 0000.0001) // SYMBOLS (CMIN->CMAX): -abcdefghijklmnopqrstuvwxyz+
(PID.TID 0000.0001) //                  0.0: .
(PID.TID 0000.0001) // RANGE I (Lo:Hi:Step):(    -1:     3:     1)
(PID.TID 0000.0001) // RANGE J (Lo:Hi:Step):(     3:    -1:    -1)
(PID.TID 0000.0001) // RANGE K (Lo:Hi:Step):(   1:   1:   1)
(PID.TID 0000.0001) // =======================================================
(PID.TID 0000.0001) // =======================================================
(PID.TID 0000.0001) // END OF FIELD                                          =
(PID.TID 0000.0001) // =======================================================
(PID.TID 0000.0001) 
(PID.TID 0000.0001) // =======================================================
(PID.TID 0000.0001) // Field hFacC at iteration          0
(PID.TID 0000.0001) // CMIN =          1.000000000000000E+00
(PID.TID 0000.0001) // CMAX =          1.000000000000000E+00
(PID.TID 0000.0001) // CINT =          0.000000000000000E+00
(PID.TID 0000.0001) // SYMBOLS (CMIN->CMAX): -abcdefghijklmnopqrstuvwxyz+
(PID.TID 0000.0001) //                  0.0: .
(PID.TID 0000.0001) // RANGE I (Lo:Hi:Step):(    -1:     3:     1)
(PID.TID 0000.0001) // RANGE J (Lo:Hi:Step):(     3:    -1:    -1)
(PID.TID 0000.0001) // RANGE K (Lo:Hi:Step):(   1:   1:   1)
(PID.TID 0000.0001) // =======================================================
(PID.TID 0000.0001) // =======================================================
(PID.TID 0000.0001) // END OF FIELD                                          =
(PID.TID 0000.0001) // =======================================================
(PID.TID 0000.0001) 
(PID.TID 0000.0001) // =======================================================
(PID.TID 0000.0001) // Field hFacW at iteration          0
(PID.TID 0000.0001) // CMIN =          1.000000000000000E+00
(PID.TID 0000.0001) // CMAX =          1.000000000000000E+00
(PID.TID 0000.0001) // CINT =          0.000000000000000E+00
(PID.TID 0000.0001) // SYMBOLS (CMIN->CMAX): -abcdefghijklmnopqrstuvwxyz+
(PID.TID 0000.0001) //                  0.0: .
(PID.TID 0000.0001) // RANGE I (Lo:Hi:Step):(    -1:     3:     1)
(PID.TID 0000.0001) // RANGE J (Lo:Hi:Step):(     3:    -1:    -1)
(PID.TID 0000.0001) // RANGE K (Lo:Hi:Step):(   1:   1:   1)
(PID.TID 0000.0001) // =======================================================
(PID.TID 0000.0001) // =======================================================
(PID.TID 0000.0001) // END OF FIELD                                          =
(PID.TID 0000.0001) // =======================================================
(PID.TID 0000.0001) 
(PID.TID 0000.0001) // =======================================================
(PID.TID 0000.0001) // Field hFacS at iteration          0
(PID.TID 0000.0001) // CMIN =          1.000000000000000E+00
(PID.TID 0000.0001) // CMAX =          1.000000000000000E+00
(PID.TID 0000.0001) // CINT =          0.000000000000000E+00
(PID.TID 0000.0001) // SYMBOLS (CMIN->CMAX): -abcdefghijklmnopqrstuvwxyz+
(PID.TID 0000.0001) //                  0.0: .
(PID.TID 0000.0001) // RANGE I (Lo:Hi:Step):(    -1:     3:     1)
(PID.TID 0000.0001) // RANGE J (Lo:Hi:Step):(     3:    -1:    -1)
(PID.TID 0000.0001) // RANGE K (Lo:Hi:Step):(   1:   1:   1)
(PID.TID 0000.0001) // =======================================================
(PID.TID 0000.0001) // =======================================================
(PID.TID 0000.0001) // END OF FIELD                                          =
(PID.TID 0000.0001) // =======================================================
(PID.TID 0000.0001) 
(PID.TID 0000.0001) GAD_INIT_FIXED: GAD_OlMinSize=  2  0  1
(PID.TID 0000.0001) 
(PID.TID 0000.0001) // ===================================
(PID.TID 0000.0001) // GAD parameters :
(PID.TID 0000.0001) // ===================================
(PID.TID 0000.0001) tempAdvScheme =   /* Temp. Horiz.Advection scheme selector */
(PID.TID 0000.0001)                       3
(PID.TID 0000.0001)     ;
(PID.TID 0000.0001) tempVertAdvScheme =   /* Temp. Vert. Advection scheme selector */
(PID.TID 0000.0001)                       3
(PID.TID 0000.0001)     ;
(PID.TID 0000.0001) tempMultiDimAdvec =   /* use Muti-Dim Advec method for Temp */
(PID.TID 0000.0001)                   F
(PID.TID 0000.0001)     ;
(PID.TID 0000.0001) tempSOM_Advection = /* use 2nd Order Moment Advection for Temp */
(PID.TID 0000.0001)                   F
(PID.TID 0000.0001)     ;
(PID.TID 0000.0001) AdamsBashforthGt = /* apply Adams-Bashforth extrapolation on Gt */
(PID.TID 0000.0001)                   T
(PID.TID 0000.0001)     ;
(PID.TID 0000.0001) AdamsBashforth_T = /* apply Adams-Bashforth extrapolation on Temp */
(PID.TID 0000.0001)                   F
(PID.TID 0000.0001)     ;
(PID.TID 0000.0001) saltAdvScheme =   /* Salt. Horiz.advection scheme selector */
(PID.TID 0000.0001)                       3
(PID.TID 0000.0001)     ;
(PID.TID 0000.0001) saltVertAdvScheme =   /* Salt. Vert. Advection scheme selector */
(PID.TID 0000.0001)                       3
(PID.TID 0000.0001)     ;
(PID.TID 0000.0001) saltMultiDimAdvec =   /* use Muti-Dim Advec method for Salt */
(PID.TID 0000.0001)                   F
(PID.TID 0000.0001)     ;
(PID.TID 0000.0001) saltSOM_Advection = /* use 2nd Order Moment Advection for Salt */
(PID.TID 0000.0001)                   F
(PID.TID 0000.0001)     ;
(PID.TID 0000.0001) AdamsBashforthGs = /* apply Adams-Bashforth extrapolation on Gs */
(PID.TID 0000.0001)                   F
(PID.TID 0000.0001)     ;
(PID.TID 0000.0001) AdamsBashforth_S = /* apply Adams-Bashforth extrapolation on Salt */
(PID.TID 0000.0001)                   F
(PID.TID 0000.0001)     ;
(PID.TID 0000.0001) // ===================================
(PID.TID 0000.0001) // =======================================================
(PID.TID 0000.0001) // Quota loading parameters
(PID.TID 0000.0001) // =======================================================
(PID.TID 0000.0001) %MON fCori_max                    =  -4.3855676645210E-05
(PID.TID 0000.0001) %MON fCori_min                    =  -4.3855676645210E-05
(PID.TID 0000.0001) %MON fCori_mean                   =  -4.3855676645210E-05
(PID.TID 0000.0001) %MON fCori_sd                     =   0.0000000000000E+00
(PID.TID 0000.0001) %MON fCoriG_max                   =  -4.5067801836625E-05
(PID.TID 0000.0001) %MON fCoriG_min                   =  -4.5067801836625E-05
(PID.TID 0000.0001) %MON fCoriG_mean                  =  -4.5067801836625E-05
(PID.TID 0000.0001) %MON fCoriG_sd                    =   0.0000000000000E+00
(PID.TID 0000.0001) %MON fCoriCos_max                 =   1.3909243610207E-04
(PID.TID 0000.0001) %MON fCoriCos_min                 =   1.3909243610207E-04
(PID.TID 0000.0001) %MON fCoriCos_mean                =   1.3909243610207E-04
(PID.TID 0000.0001) %MON fCoriCos_sd                  =   0.0000000000000E+00
(PID.TID 0000.0001) INI_CG2D: CG2D normalisation factor =  2.7288038648017932E-04
(PID.TID 0000.0001) 
(PID.TID 0000.0001) // =======================================================
(PID.TID 0000.0001) // Model configuration
(PID.TID 0000.0001) // =======================================================
(PID.TID 0000.0001) //
(PID.TID 0000.0001) // "Physical" paramters ( PARM01 in namelist )
(PID.TID 0000.0001) //
(PID.TID 0000.0001) buoyancyRelation = /* Type of relation to get Buoyancy */
(PID.TID 0000.0001)               'OCEANIC'
(PID.TID 0000.0001)     ;
(PID.TID 0000.0001) fluidIsAir   =  /* fluid major constituent is Air */
(PID.TID 0000.0001)                   F
(PID.TID 0000.0001)     ;
(PID.TID 0000.0001) fluidIsWater =  /* fluid major constituent is Water */
(PID.TID 0000.0001)                   T
(PID.TID 0000.0001)     ;
(PID.TID 0000.0001) usingPCoords =  /* use p (or p*) vertical coordinate */
(PID.TID 0000.0001)                   F
(PID.TID 0000.0001)     ;
(PID.TID 0000.0001) usingZCoords =  /* use z (or z*) vertical coordinate */
(PID.TID 0000.0001)                   T
(PID.TID 0000.0001)     ;
(PID.TID 0000.0001) tRef =   /* Reference temperature profile ( oC or K ) */
(PID.TID 0000.0001)                 2.650000000000000E+01,      /* K =  1 */
(PID.TID 0000.0001)                 2.610000000000000E+01,      /* K =  2 */
(PID.TID 0000.0001)                 2.600000000000000E+01,      /* K =  3 */
(PID.TID 0000.0001)                 2.550000000000000E+01,      /* K =  4 */
(PID.TID 0000.0001)                 2.540000000000000E+01,      /* K =  5 */
(PID.TID 0000.0001)                 2.490000000000000E+01,      /* K =  6 */
(PID.TID 0000.0001)                 2.450000000000000E+01,      /* K =  7 */
(PID.TID 0000.0001)                 2.400000000000000E+01,      /* K =  8 */
(PID.TID 0000.0001)                 2.370000000000000E+01,      /* K =  9 */
(PID.TID 0000.0001)                 2.330000000000000E+01,      /* K = 10 */
(PID.TID 0000.0001)                 2.310000000000000E+01,      /* K = 11 */
(PID.TID 0000.0001)                 2.280000000000000E+01,      /* K = 12 */
(PID.TID 0000.0001)                 2.250000000000000E+01,      /* K = 13 */
(PID.TID 0000.0001)                 2.210000000000000E+01,      /* K = 14 */
(PID.TID 0000.0001)                 2.160000000000000E+01,      /* K = 15 */
(PID.TID 0000.0001)                 2.060000000000000E+01,      /* K = 16 */
(PID.TID 0000.0001)                 1.950000000000000E+01,      /* K = 17 */
(PID.TID 0000.0001)                 1.840000000000000E+01,      /* K = 18 */
(PID.TID 0000.0001)                 1.730000000000000E+01,      /* K = 19 */
(PID.TID 0000.0001)                 1.660000000000000E+01,      /* K = 20 */
(PID.TID 0000.0001)                 1.550000000000000E+01,      /* K = 21 */
(PID.TID 0000.0001)                 1.460000000000000E+01,      /* K = 22 */
(PID.TID 0000.0001)                 1.380000000000000E+01,      /* K = 23 */
(PID.TID 0000.0001)                 1.310000000000000E+01,      /* K = 24 */
(PID.TID 0000.0001)                 1.160000000000000E+01,      /* K = 25 */
(PID.TID 0000.0001)                 1.010000000000000E+01,      /* K = 26 */
(PID.TID 0000.0001)                 7.700000000000000E+00,      /* K = 27 */
(PID.TID 0000.0001)                 5.300000000000000E+00,      /* K = 28 */
(PID.TID 0000.0001)                 4.100000000000000E+00,      /* K = 29 */
(PID.TID 0000.0001)     2 @  3.700000000000000E+00,             /* K = 30: 31 */
(PID.TID 0000.0001)                 3.400000000000000E+00,      /* K = 32 */
(PID.TID 0000.0001)                 3.000000000000000E+00,      /* K = 33 */
(PID.TID 0000.0001)                 2.800000000000000E+00,      /* K = 34 */
(PID.TID 0000.0001)                 2.600000000000000E+00       /* K = 35 */
(PID.TID 0000.0001)     ;
(PID.TID 0000.0001) sRef =   /* Reference salinity profile ( psu ) */
(PID.TID 0000.0001)    35 @  3.500000000000000E+01              /* K =  1: 35 */
(PID.TID 0000.0001)     ;
(PID.TID 0000.0001) viscAh  =   /* Lateral eddy viscosity ( m^2/s ) */
(PID.TID 0000.0001)                 0.000000000000000E+00
(PID.TID 0000.0001)     ;
(PID.TID 0000.0001) viscAhMax = /* Maximum lateral eddy viscosity ( m^2/s ) */
(PID.TID 0000.0001)                 1.000000000000000E+21
(PID.TID 0000.0001)     ;
(PID.TID 0000.0001) viscAhGrid = /* Grid dependent lateral eddy viscosity ( non-dim. ) */
(PID.TID 0000.0001)                 0.000000000000000E+00
(PID.TID 0000.0001)     ;
(PID.TID 0000.0001) useFullLeith = /* Use Full Form of Leith Viscosity on/off flag*/
(PID.TID 0000.0001)                   F
(PID.TID 0000.0001)     ;
(PID.TID 0000.0001) useStrainTensionVisc= /* Use StrainTension Form of Viscous Operator flag*/
(PID.TID 0000.0001)                   F
(PID.TID 0000.0001)     ;
(PID.TID 0000.0001) useAreaViscLength = /* Use area for visc length instead of geom. mean*/
(PID.TID 0000.0001)                   F
(PID.TID 0000.0001)     ;
(PID.TID 0000.0001) viscC2leith = /* Leith harmonic visc. factor (on grad(vort),non-dim.) */
(PID.TID 0000.0001)                 0.000000000000000E+00
(PID.TID 0000.0001)     ;
(PID.TID 0000.0001) viscC2leithD = /* Leith harmonic viscosity factor (on grad(div),non-dim.)*/
(PID.TID 0000.0001)                 0.000000000000000E+00
(PID.TID 0000.0001)     ;
(PID.TID 0000.0001) viscC2smag = /* Smagorinsky harmonic viscosity factor (non-dim.) */
(PID.TID 0000.0001)                 0.000000000000000E+00
(PID.TID 0000.0001)     ;
(PID.TID 0000.0001) viscA4  =   /* Lateral biharmonic viscosity ( m^4/s ) */
(PID.TID 0000.0001)                 0.000000000000000E+00
(PID.TID 0000.0001)     ;
(PID.TID 0000.0001) viscA4Max = /* Maximum biharmonic viscosity ( m^2/s ) */
(PID.TID 0000.0001)                 1.000000000000000E+21
(PID.TID 0000.0001)     ;
(PID.TID 0000.0001) viscA4Grid = /* Grid dependent biharmonic viscosity ( non-dim. ) */
(PID.TID 0000.0001)                 0.000000000000000E+00
(PID.TID 0000.0001)     ;
(PID.TID 0000.0001) viscC4leith = /* Leith biharm viscosity factor (on grad(vort), non-dim.)*/
(PID.TID 0000.0001)                 0.000000000000000E+00
(PID.TID 0000.0001)     ;
(PID.TID 0000.0001) viscC4leithD = /* Leith biharm viscosity factor (on grad(div), non-dim.) */
(PID.TID 0000.0001)                 0.000000000000000E+00
(PID.TID 0000.0001)     ;
(PID.TID 0000.0001) viscC4Smag = /* Smagorinsky biharm viscosity factor (non-dim) */
(PID.TID 0000.0001)                 0.000000000000000E+00
(PID.TID 0000.0001)     ;
(PID.TID 0000.0001) no_slip_sides =  /* Viscous BCs: No-slip sides */
(PID.TID 0000.0001)                   F
(PID.TID 0000.0001)     ;
(PID.TID 0000.0001) sideDragFactor = /* side-drag scaling factor (non-dim) */
(PID.TID 0000.0001)                 2.000000000000000E+00
(PID.TID 0000.0001)     ;
(PID.TID 0000.0001) viscArNr = /* vertical profile of vertical viscosity ( m^2/s )*/
(PID.TID 0000.0001)    35 @  0.000000000000000E+00              /* K =  1: 35 */
(PID.TID 0000.0001)     ;
(PID.TID 0000.0001) no_slip_bottom =  /* Viscous BCs: No-slip bottom */
(PID.TID 0000.0001)                   T
(PID.TID 0000.0001)     ;
(PID.TID 0000.0001) bottomDragLinear = /* linear bottom-drag coefficient ( m/s ) */
(PID.TID 0000.0001)                 0.000000000000000E+00
(PID.TID 0000.0001)     ;
(PID.TID 0000.0001) bottomDragQuadratic = /* quadratic bottom-drag coefficient (-) */
(PID.TID 0000.0001)                 0.000000000000000E+00
(PID.TID 0000.0001)     ;
(PID.TID 0000.0001) diffKhT =   /* Laplacian diffusion of heat laterally ( m^2/s ) */
(PID.TID 0000.0001)                 1.000000000000000E+02
(PID.TID 0000.0001)     ;
(PID.TID 0000.0001) diffK4T =   /* Biharmonic diffusion of heat laterally ( m^4/s ) */
(PID.TID 0000.0001)                 0.000000000000000E+00
(PID.TID 0000.0001)     ;
(PID.TID 0000.0001) diffKhS =   /* Laplacian diffusion of salt laterally ( m^2/s ) */
(PID.TID 0000.0001)                 0.000000000000000E+00
(PID.TID 0000.0001)     ;
(PID.TID 0000.0001) diffK4S =   /* Biharmonic diffusion of salt laterally ( m^4/s ) */
(PID.TID 0000.0001)                 0.000000000000000E+00
(PID.TID 0000.0001)     ;
(PID.TID 0000.0001) diffKrNrT = /* vertical profile of vertical diffusion of Temp ( m^2/s )*/
(PID.TID 0000.0001)    35 @  1.000000000000000E-04              /* K =  1: 35 */
(PID.TID 0000.0001)     ;
(PID.TID 0000.0001) diffKrNrS = /* vertical profile of vertical diffusion of Salt ( m^2/s )*/
(PID.TID 0000.0001)    35 @  0.000000000000000E+00              /* K =  1: 35 */
(PID.TID 0000.0001)     ;
(PID.TID 0000.0001) diffKrBL79surf = /* Surface diffusion for Bryan and Lewis 79 ( m^2/s ) */
(PID.TID 0000.0001)                 0.000000000000000E+00
(PID.TID 0000.0001)     ;
(PID.TID 0000.0001) diffKrBL79deep = /* Deep diffusion for Bryan and Lewis 1979 ( m^2/s ) */
(PID.TID 0000.0001)                 0.000000000000000E+00
(PID.TID 0000.0001)     ;
(PID.TID 0000.0001) diffKrBL79scl = /* Depth scale for Bryan and Lewis 1979 ( m ) */
(PID.TID 0000.0001)                 2.000000000000000E+02
(PID.TID 0000.0001)     ;
(PID.TID 0000.0001) diffKrBL79Ho = /* Turning depth for Bryan and Lewis 1979 ( m ) */
(PID.TID 0000.0001)                -2.000000000000000E+03
(PID.TID 0000.0001)     ;
(PID.TID 0000.0001) ivdc_kappa = /* Implicit Vertical Diffusivity for Convection ( m^2/s) */
(PID.TID 0000.0001)                 0.000000000000000E+00
(PID.TID 0000.0001)     ;
(PID.TID 0000.0001) hMixCriteria=  /* Criteria for mixed-layer diagnostic */
(PID.TID 0000.0001)                -8.000000000000000E-01
(PID.TID 0000.0001)     ;
(PID.TID 0000.0001) dRhoSmall =  /* Parameter for mixed-layer diagnostic */
(PID.TID 0000.0001)                 1.000000000000000E-06
(PID.TID 0000.0001)     ;
(PID.TID 0000.0001) hMixSmooth=  /* Smoothing parameter for mixed-layer diagnostic */
(PID.TID 0000.0001)                 0.000000000000000E+00
(PID.TID 0000.0001)     ;
(PID.TID 0000.0001) eosType =  /* Type of Equation of State */
(PID.TID 0000.0001)               'JMD95Z'
(PID.TID 0000.0001)     ;
(PID.TID 0000.0001) celsius2K = /* 0 degree Celsius converted to Kelvin ( K ) */
(PID.TID 0000.0001)                 2.731500000000000E+02
(PID.TID 0000.0001)     ;
(PID.TID 0000.0001) rhoConst  = /* Reference density (Boussinesq)  ( kg/m^3 ) */
(PID.TID 0000.0001)                 9.998000000000000E+02
(PID.TID 0000.0001)     ;
(PID.TID 0000.0001) rhoFacC = /* normalized Reference density @ cell-Center (-) */
(PID.TID 0000.0001)    35 @  1.000000000000000E+00              /* K =  1: 35 */
(PID.TID 0000.0001)     ;
(PID.TID 0000.0001) rhoFacF = /* normalized Reference density @ W-Interface (-) */
(PID.TID 0000.0001)    36 @  1.000000000000000E+00              /* K =  1: 36 */
(PID.TID 0000.0001)     ;
(PID.TID 0000.0001) rhoConstFresh = /* Fresh-water reference density ( kg/m^3 ) */
(PID.TID 0000.0001)                 9.998000000000000E+02
(PID.TID 0000.0001)     ;
(PID.TID 0000.0001) gravity =   /* Gravitational acceleration ( m/s^2 ) */
(PID.TID 0000.0001)                 9.810000000000000E+00
(PID.TID 0000.0001)     ;
(PID.TID 0000.0001) gBaro =   /* Barotropic gravity ( m/s^2 ) */
(PID.TID 0000.0001)                 9.810000000000000E+00
(PID.TID 0000.0001)     ;
(PID.TID 0000.0001) rotationPeriod =   /* Rotation Period ( s ) */
(PID.TID 0000.0001)                 8.616400000000000E+04
(PID.TID 0000.0001)     ;
(PID.TID 0000.0001) omega =   /* Angular velocity ( rad/s ) */
(PID.TID 0000.0001)                 7.292123516990375E-05
(PID.TID 0000.0001)     ;
(PID.TID 0000.0001) f0 =   /* Reference coriolis parameter ( 1/s ) */
(PID.TID 0000.0001)                 1.000000000000000E-04
(PID.TID 0000.0001)     ;
(PID.TID 0000.0001) beta =   /* Beta ( 1/(m.s) ) */
(PID.TID 0000.0001)                 9.999999999999999E-12
(PID.TID 0000.0001)     ;
(PID.TID 0000.0001) fPrime =   /* Second coriolis parameter ( 1/s ) */
(PID.TID 0000.0001)                 0.000000000000000E+00
(PID.TID 0000.0001)     ;
(PID.TID 0000.0001) rigidLid =   /* Rigid lid on/off flag */
(PID.TID 0000.0001)                   T
(PID.TID 0000.0001)     ;
(PID.TID 0000.0001) implicitFreeSurface =   /* Implicit free surface on/off flag */
(PID.TID 0000.0001)                   F
(PID.TID 0000.0001)     ;
(PID.TID 0000.0001) freeSurfFac =   /* Implicit free surface factor */
(PID.TID 0000.0001)                 0.000000000000000E+00
(PID.TID 0000.0001)     ;
(PID.TID 0000.0001) implicSurfPress =  /* Surface Pressure implicit factor (0-1)*/
(PID.TID 0000.0001)                 1.000000000000000E+00
(PID.TID 0000.0001)     ;
(PID.TID 0000.0001) implicDiv2Dflow =  /* Barot. Flow Div. implicit factor (0-1)*/
(PID.TID 0000.0001)                 1.000000000000000E+00
(PID.TID 0000.0001)     ;
(PID.TID 0000.0001) uniformLin_PhiSurf = /* use uniform Bo_surf on/off flag*/
(PID.TID 0000.0001)                   T
(PID.TID 0000.0001)     ;
(PID.TID 0000.0001) uniformFreeSurfLev = /* free-surface level-index is uniform */
(PID.TID 0000.0001)                   T
(PID.TID 0000.0001)     ;
(PID.TID 0000.0001) hFacMin =   /* minimum partial cell factor (hFac) */
(PID.TID 0000.0001)                 1.000000000000000E+00
(PID.TID 0000.0001)     ;
(PID.TID 0000.0001) hFacMinDr = /* minimum partial cell thickness ( m) */
(PID.TID 0000.0001)                 1.000000000000000E+00
(PID.TID 0000.0001)     ;
(PID.TID 0000.0001) exactConserv =  /* Exact Volume Conservation on/off flag*/
(PID.TID 0000.0001)                   F
(PID.TID 0000.0001)     ;
(PID.TID 0000.0001) linFSConserveTr = /* Tracer correction for Lin Free Surface on/off flag*/
(PID.TID 0000.0001)                   F
(PID.TID 0000.0001)     ;
(PID.TID 0000.0001) nonlinFreeSurf = /* Non-linear Free Surf. options (-1,0,1,2,3)*/
(PID.TID 0000.0001)                       0
(PID.TID 0000.0001)      -1,0= Off ; 1,2,3= On, 2=+rescale gU,gV, 3=+update cg2d solv.
(PID.TID 0000.0001)     ;
(PID.TID 0000.0001) hFacInf =   /* lower threshold for hFac (nonlinFreeSurf only)*/
(PID.TID 0000.0001)                 2.000000000000000E-01
(PID.TID 0000.0001)     ;
(PID.TID 0000.0001) hFacSup =   /* upper threshold for hFac (nonlinFreeSurf only)*/
(PID.TID 0000.0001)                 2.000000000000000E+00
(PID.TID 0000.0001)     ;
(PID.TID 0000.0001) select_rStar = /* r* Vertical coord. options (=0 r coord.; >0 uses r*)*/
(PID.TID 0000.0001)                       0
(PID.TID 0000.0001)     ;
(PID.TID 0000.0001) useRealFreshWaterFlux = /* Real Fresh Water Flux on/off flag*/
(PID.TID 0000.0001)                   F
(PID.TID 0000.0001)     ;
(PID.TID 0000.0001) temp_EvPrRn = /* Temp. of Evap/Prec/R (UNSET=use local T)(oC)*/
(PID.TID 0000.0001)                 1.234567000000000E+05
(PID.TID 0000.0001)     ;
(PID.TID 0000.0001) salt_EvPrRn = /* Salin. of Evap/Prec/R (UNSET=use local S)(psu)*/
(PID.TID 0000.0001)                 0.000000000000000E+00
(PID.TID 0000.0001)     ;
(PID.TID 0000.0001) selectAddFluid = /* option for mass source/sink of fluid (=0: off) */
(PID.TID 0000.0001)                       0
(PID.TID 0000.0001)     ;
(PID.TID 0000.0001) temp_addMass = /* Temp. of addMass array (UNSET=use local T)(oC)*/
(PID.TID 0000.0001)                 1.234567000000000E+05
(PID.TID 0000.0001)     ;
(PID.TID 0000.0001) salt_addMass = /* Salin. of addMass array (UNSET=use local S)(psu)*/
(PID.TID 0000.0001)                 0.000000000000000E+00
(PID.TID 0000.0001)     ;
(PID.TID 0000.0001) convertFW2Salt = /* convert F.W. Flux to Salt Flux (-1=use local S)(psu)*/
(PID.TID 0000.0001)                 3.500000000000000E+01
(PID.TID 0000.0001)     ;
(PID.TID 0000.0001) use3Dsolver = /* use 3-D pressure solver on/off flag */
(PID.TID 0000.0001)                   F
(PID.TID 0000.0001)     ;
(PID.TID 0000.0001) nonHydrostatic =  /* Non-Hydrostatic on/off flag */
(PID.TID 0000.0001)                   F
(PID.TID 0000.0001)     ;
(PID.TID 0000.0001) nh_Am2 = /* Non-Hydrostatic terms scaling factor */
(PID.TID 0000.0001)                 1.000000000000000E+00
(PID.TID 0000.0001)     ;
(PID.TID 0000.0001) implicitNHPress = /* Non-Hyd Pressure implicit factor (0-1)*/
(PID.TID 0000.0001)                 1.000000000000000E+00
(PID.TID 0000.0001)     ;
(PID.TID 0000.0001) selectNHfreeSurf = /* Non-Hyd (free-)Surface option */
(PID.TID 0000.0001)                       0
(PID.TID 0000.0001)     ;
(PID.TID 0000.0001) quasiHydrostatic = /* Quasi-Hydrostatic on/off flag */
(PID.TID 0000.0001)                   F
(PID.TID 0000.0001)     ;
(PID.TID 0000.0001) calc_wVelocity = /* vertical velocity calculation on/off flag */
(PID.TID 0000.0001)                   F
(PID.TID 0000.0001)     ;
(PID.TID 0000.0001) momStepping =  /* Momentum equation on/off flag */
(PID.TID 0000.0001)                   F
(PID.TID 0000.0001)     ;
(PID.TID 0000.0001) vectorInvariantMomentum= /* Vector-Invariant Momentum on/off */
(PID.TID 0000.0001)                   F
(PID.TID 0000.0001)     ;
(PID.TID 0000.0001) momAdvection =  /* Momentum advection on/off flag */
(PID.TID 0000.0001)                   F
(PID.TID 0000.0001)     ;
(PID.TID 0000.0001) momViscosity =  /* Momentum viscosity on/off flag */
(PID.TID 0000.0001)                   F
(PID.TID 0000.0001)     ;
(PID.TID 0000.0001) momImplVertAdv= /* Momentum implicit vert. advection on/off*/
(PID.TID 0000.0001)                   F
(PID.TID 0000.0001)     ;
(PID.TID 0000.0001) implicitViscosity = /* Implicit viscosity on/off flag */
(PID.TID 0000.0001)                   F
(PID.TID 0000.0001)     ;
(PID.TID 0000.0001) metricTerms =  /* metric-Terms on/off flag */
(PID.TID 0000.0001)                   T
(PID.TID 0000.0001)     ;
(PID.TID 0000.0001) useNHMTerms = /* Non-Hydrostatic Metric-Terms on/off */
(PID.TID 0000.0001)                   F
(PID.TID 0000.0001)     ;
(PID.TID 0000.0001) selectCoriMap = /* Coriolis Map options (0,1,2,3)*/
(PID.TID 0000.0001)                       2
(PID.TID 0000.0001)     0= f-Plane ; 1= Beta-Plane ; 2= Spherical ; 3= read from file
(PID.TID 0000.0001)     ;
(PID.TID 0000.0001) use3dCoriolis = /* 3-D Coriolis on/off flag */
(PID.TID 0000.0001)                   F
(PID.TID 0000.0001)     ;
(PID.TID 0000.0001) useCoriolis =  /* Coriolis on/off flag */
(PID.TID 0000.0001)                   F
(PID.TID 0000.0001)     ;
(PID.TID 0000.0001) useCDscheme =  /* CD scheme on/off flag */
(PID.TID 0000.0001)                   F
(PID.TID 0000.0001)     ;
(PID.TID 0000.0001) useEnergyConservingCoriolis= /* Flx-Form Coriolis scheme flag */
(PID.TID 0000.0001)                   F
(PID.TID 0000.0001)     ;
(PID.TID 0000.0001) useJamartWetPoints= /* Coriolis WetPoints method flag */
(PID.TID 0000.0001)                   F
(PID.TID 0000.0001)     ;
(PID.TID 0000.0001) useJamartMomAdv= /* V.I Non-linear terms Jamart flag */
(PID.TID 0000.0001)                   F
(PID.TID 0000.0001)     ;
(PID.TID 0000.0001) useAbsVorticity= /* V.I Works with f+zeta in Coriolis */
(PID.TID 0000.0001)                   F
(PID.TID 0000.0001)     ;
(PID.TID 0000.0001) selectVortScheme= /* V.I Scheme selector for Vorticity-Term */
(PID.TID 0000.0001)               123456789
(PID.TID 0000.0001)    = 0 : enstrophy (Shallow-Water Eq.) conserving scheme by Sadourny, JAS 75
(PID.TID 0000.0001)    = 1 : same as 0 with modified hFac
(PID.TID 0000.0001)    = 2 : energy conserving scheme (used by Sadourny in JAS 75 paper)
(PID.TID 0000.0001)    = 3 : energy (general) and enstrophy (2D, nonDiv.) conserving scheme
(PID.TID 0000.0001)          from Sadourny (Burridge & Haseler, ECMWF Rep.4, 1977)
(PID.TID 0000.0001)     ;
(PID.TID 0000.0001) upwindVorticity= /* V.I Upwind bias vorticity flag */
(PID.TID 0000.0001)                   F
(PID.TID 0000.0001)     ;
(PID.TID 0000.0001) highOrderVorticity= /* V.I High order vort. advect. flag */
(PID.TID 0000.0001)                   F
(PID.TID 0000.0001)     ;
(PID.TID 0000.0001) upwindShear= /* V.I Upwind vertical Shear advection flag */
(PID.TID 0000.0001)                   F
(PID.TID 0000.0001)     ;
(PID.TID 0000.0001) selectKEscheme= /* V.I Kinetic Energy scheme selector */
(PID.TID 0000.0001)                       0
(PID.TID 0000.0001)     ;
(PID.TID 0000.0001) momForcing =  /* Momentum forcing on/off flag */
(PID.TID 0000.0001)                   F
(PID.TID 0000.0001)     ;
(PID.TID 0000.0001) momPressureForcing =  /* Momentum pressure term on/off flag */
(PID.TID 0000.0001)                   F
(PID.TID 0000.0001)     ;
(PID.TID 0000.0001) implicitIntGravWave= /* Implicit Internal Gravity Wave flag */
(PID.TID 0000.0001)                   F
(PID.TID 0000.0001)     ;
(PID.TID 0000.0001) staggerTimeStep =    /* Stagger time stepping on/off flag */
(PID.TID 0000.0001)                   F
(PID.TID 0000.0001)     ;
(PID.TID 0000.0001) doResetHFactors = /* reset thickness factors @ each time-step */
(PID.TID 0000.0001)                   F
(PID.TID 0000.0001)     ;
(PID.TID 0000.0001) multiDimAdvection =  /* enable/disable Multi-Dim Advection */
(PID.TID 0000.0001)                   T
(PID.TID 0000.0001)     ;
(PID.TID 0000.0001) useMultiDimAdvec =   /* Multi-Dim Advection is/is-not used */
(PID.TID 0000.0001)                   T
(PID.TID 0000.0001)     ;
(PID.TID 0000.0001) implicitDiffusion = /* Implicit Diffusion on/off flag */
(PID.TID 0000.0001)                   T
(PID.TID 0000.0001)     ;
(PID.TID 0000.0001) tempStepping =  /* Temperature equation on/off flag */
(PID.TID 0000.0001)                   T
(PID.TID 0000.0001)     ;
(PID.TID 0000.0001) tempAdvection=  /* Temperature advection on/off flag */
(PID.TID 0000.0001)                   T
(PID.TID 0000.0001)     ;
(PID.TID 0000.0001) tempImplVertAdv = /* Temp. implicit vert. advection on/off */
(PID.TID 0000.0001)                   F
(PID.TID 0000.0001)     ;
(PID.TID 0000.0001) tempForcing  =  /* Temperature forcing on/off flag */
(PID.TID 0000.0001)                   T
(PID.TID 0000.0001)     ;
(PID.TID 0000.0001) tempIsActiveTr = /* Temp. is a dynamically Active Tracer */
(PID.TID 0000.0001)                   F
(PID.TID 0000.0001)     ;
(PID.TID 0000.0001) saltStepping =  /* Salinity equation on/off flag */
(PID.TID 0000.0001)                   F
(PID.TID 0000.0001)     ;
(PID.TID 0000.0001) saltAdvection=  /* Salinity advection on/off flag */
(PID.TID 0000.0001)                   F
(PID.TID 0000.0001)     ;
(PID.TID 0000.0001) saltImplVertAdv = /* Sali. implicit vert. advection on/off */
(PID.TID 0000.0001)                   F
(PID.TID 0000.0001)     ;
(PID.TID 0000.0001) saltForcing  =  /* Salinity forcing on/off flag */
(PID.TID 0000.0001)                   F
(PID.TID 0000.0001)     ;
(PID.TID 0000.0001) saltIsActiveTr = /* Salt  is a dynamically Active Tracer */
(PID.TID 0000.0001)                   F
(PID.TID 0000.0001)     ;
(PID.TID 0000.0001)  readBinaryPrec = /* Precision used for reading binary files */
(PID.TID 0000.0001)                      32
(PID.TID 0000.0001)     ;
(PID.TID 0000.0001) writeBinaryPrec = /* Precision used for writing binary files */
(PID.TID 0000.0001)                      32
(PID.TID 0000.0001)     ;
(PID.TID 0000.0001)  globalFiles = /* write "global" (=not per tile) files */
(PID.TID 0000.0001)                   F
(PID.TID 0000.0001)     ;
(PID.TID 0000.0001)  useSingleCpuIO = /* only master MPI process does I/O */
(PID.TID 0000.0001)                   T
(PID.TID 0000.0001)     ;
(PID.TID 0000.0001) /* debLev[*]  : level of debug & auxiliary message printing */
(PID.TID 0000.0001) debLevZero =  0 ; /* level of disabled aux. msg printing */
(PID.TID 0000.0001)    debLevA =  1 ; /* level of minimum  aux. msg printing */
(PID.TID 0000.0001)    debLevB =  2 ; /* level of low aux. print (report read-file opening)*/
(PID.TID 0000.0001)    debLevC =  3 ; /* level of moderate debug prt (most pkgs debug msg) */
(PID.TID 0000.0001)    debLevD =  4 ; /* level of enhanced debug prt (add DEBUG_STATS prt) */
(PID.TID 0000.0001)    debLevE =  5 ; /* level of extensive debug printing */
(PID.TID 0000.0001) debugLevel =  /* select debug printing level */
(PID.TID 0000.0001)                       2
(PID.TID 0000.0001)     ;
(PID.TID 0000.0001) //
(PID.TID 0000.0001) // Elliptic solver(s) paramters ( PARM02 in namelist )
(PID.TID 0000.0001) //
(PID.TID 0000.0001) cg2dMaxIters =   /* Upper limit on 2d con. grad iterations  */
(PID.TID 0000.0001)                     300
(PID.TID 0000.0001)     ;
(PID.TID 0000.0001) cg2dChkResFreq =   /* 2d con. grad convergence test frequency */
(PID.TID 0000.0001)                       1
(PID.TID 0000.0001)     ;
(PID.TID 0000.0001) cg2dTargetResidual =   /* 2d con. grad target residual  */
(PID.TID 0000.0001)                 1.000000000000000E-07
(PID.TID 0000.0001)     ;
(PID.TID 0000.0001) cg2dTargetResWunit =   /* CG2d target residual [W units] */
(PID.TID 0000.0001)                -1.000000000000000E+00
(PID.TID 0000.0001)     ;
(PID.TID 0000.0001) cg2dPreCondFreq =   /* Freq. for updating cg2d preconditioner */
(PID.TID 0000.0001)                       1
(PID.TID 0000.0001)     ;
(PID.TID 0000.0001) useSRCGSolver =  /* use single reduction CG solver(s) */
(PID.TID 0000.0001)                   F
(PID.TID 0000.0001)     ;
(PID.TID 0000.0001) printResidualFreq = /* Freq. for printing CG residual */
(PID.TID 0000.0001)                       0
(PID.TID 0000.0001)     ;
(PID.TID 0000.0001) //
(PID.TID 0000.0001) // Time stepping paramters ( PARM03 in namelist )
(PID.TID 0000.0001) //
(PID.TID 0000.0001) deltaTmom =   /* Momentum equation timestep ( s ) */
(PID.TID 0000.0001)                 1.080000000000000E+04
(PID.TID 0000.0001)     ;
(PID.TID 0000.0001) deltaTfreesurf = /* FreeSurface equation timestep ( s ) */
(PID.TID 0000.0001)                 1.080000000000000E+04
(PID.TID 0000.0001)     ;
(PID.TID 0000.0001) dTtracerLev =  /* Tracer equation timestep ( s ) */
(PID.TID 0000.0001)    35 @  1.080000000000000E+04              /* K =  1: 35 */
(PID.TID 0000.0001)     ;
(PID.TID 0000.0001) deltaTClock  =   /* Model clock timestep ( s ) */
(PID.TID 0000.0001)                 1.080000000000000E+04
(PID.TID 0000.0001)     ;
(PID.TID 0000.0001) cAdjFreq =   /* Convective adjustment interval ( s ) */
(PID.TID 0000.0001)                 0.000000000000000E+00
(PID.TID 0000.0001)     ;
(PID.TID 0000.0001) momForcingOutAB = /* =1: take Momentum Forcing out of Adams-Bash. stepping */
(PID.TID 0000.0001)                       0
(PID.TID 0000.0001)     ;
(PID.TID 0000.0001) tracForcingOutAB = /* =1: take T,S,pTr Forcing out of Adams-Bash. stepping */
(PID.TID 0000.0001)                       0
(PID.TID 0000.0001)     ;
(PID.TID 0000.0001) momDissip_In_AB = /* put Dissipation Tendency in Adams-Bash. stepping */
(PID.TID 0000.0001)                   T
(PID.TID 0000.0001)     ;
(PID.TID 0000.0001) doAB_onGtGs = /* apply AB on Tendencies (rather than on T,S)*/
(PID.TID 0000.0001)                   T
(PID.TID 0000.0001)     ;
(PID.TID 0000.0001) abEps =   /* Adams-Bashforth-2 stabilizing weight */
(PID.TID 0000.0001)                 1.000000000000000E-01
(PID.TID 0000.0001)     ;
(PID.TID 0000.0001) pickupStrictlyMatch= /* stop if pickup do not strictly match */
(PID.TID 0000.0001)                   T
(PID.TID 0000.0001)     ;
(PID.TID 0000.0001) nIter0   =   /* Run starting timestep number */
(PID.TID 0000.0001)                       0
(PID.TID 0000.0001)     ;
(PID.TID 0000.0001) nTimeSteps = /* Number of timesteps */
(PID.TID 0000.0001)                       4
(PID.TID 0000.0001)     ;
(PID.TID 0000.0001) nEndIter =   /* Run ending timestep number */
(PID.TID 0000.0001)                       4
(PID.TID 0000.0001)     ;
(PID.TID 0000.0001) baseTime =   /* Model base time ( s ) */
(PID.TID 0000.0001)                 0.000000000000000E+00
(PID.TID 0000.0001)     ;
(PID.TID 0000.0001) startTime =  /* Run start time ( s ) */
(PID.TID 0000.0001)                 0.000000000000000E+00
(PID.TID 0000.0001)     ;
(PID.TID 0000.0001) endTime  =   /* Integration ending time ( s ) */
(PID.TID 0000.0001)                 4.320000000000000E+04
(PID.TID 0000.0001)     ;
(PID.TID 0000.0001) pChkPtFreq = /* Permanent restart/pickup file interval ( s ) */
(PID.TID 0000.0001)                 3.110400000000000E+07
(PID.TID 0000.0001)     ;
(PID.TID 0000.0001) chkPtFreq  = /* Rolling restart/pickup file interval ( s ) */
(PID.TID 0000.0001)                 3.110400000000000E+07
(PID.TID 0000.0001)     ;
(PID.TID 0000.0001) pickup_write_mdsio =   /* Model IO flag. */
(PID.TID 0000.0001)                   T
(PID.TID 0000.0001)     ;
(PID.TID 0000.0001) pickup_read_mdsio =   /* Model IO flag. */
(PID.TID 0000.0001)                   T
(PID.TID 0000.0001)     ;
(PID.TID 0000.0001) pickup_write_mnc =   /* Model IO flag. */
(PID.TID 0000.0001)                   F
(PID.TID 0000.0001)     ;
(PID.TID 0000.0001) pickup_read_mnc =   /* Model IO flag. */
(PID.TID 0000.0001)                   F
(PID.TID 0000.0001)     ;
(PID.TID 0000.0001) pickup_write_immed =   /* Model IO flag. */
(PID.TID 0000.0001)                   F
(PID.TID 0000.0001)     ;
(PID.TID 0000.0001) writePickupAtEnd =   /* Model IO flag. */
(PID.TID 0000.0001)                   T
(PID.TID 0000.0001)     ;
(PID.TID 0000.0001) dumpFreq =   /* Model state write out interval ( s ). */
(PID.TID 0000.0001)                 3.110400000000000E+07
(PID.TID 0000.0001)     ;
(PID.TID 0000.0001) dumpInitAndLast= /* write out Initial & Last iter. model state */
(PID.TID 0000.0001)                   T
(PID.TID 0000.0001)     ;
(PID.TID 0000.0001) snapshot_mdsio =   /* Model IO flag. */
(PID.TID 0000.0001)                   F
(PID.TID 0000.0001)     ;
(PID.TID 0000.0001) snapshot_mnc =   /* Model IO flag. */
(PID.TID 0000.0001)                   T
(PID.TID 0000.0001)     ;
(PID.TID 0000.0001) monitorFreq =   /* Monitor output interval ( s ). */
(PID.TID 0000.0001)                 1.000000000000000E+00
(PID.TID 0000.0001)     ;
(PID.TID 0000.0001) monitorSelect = /* select group of variables to monitor */
(PID.TID 0000.0001)                       3
(PID.TID 0000.0001)     ;
(PID.TID 0000.0001) monitor_stdio =   /* Model IO flag. */
(PID.TID 0000.0001)                   T
(PID.TID 0000.0001)     ;
(PID.TID 0000.0001) monitor_mnc =   /* Model IO flag. */
(PID.TID 0000.0001)                   F
(PID.TID 0000.0001)     ;
(PID.TID 0000.0001) externForcingPeriod =   /* forcing period (s) */
(PID.TID 0000.0001)                 2.592000000000000E+06
(PID.TID 0000.0001)     ;
(PID.TID 0000.0001) externForcingCycle =   /* period of the cyle (s). */
(PID.TID 0000.0001)                 3.110400000000000E+07
(PID.TID 0000.0001)     ;
(PID.TID 0000.0001) tauThetaClimRelax =   /* relaxation time scale (s) */
(PID.TID 0000.0001)                 2.592000000000000E+05
(PID.TID 0000.0001)     ;
(PID.TID 0000.0001) tauSaltClimRelax =   /* relaxation time scale (s) */
(PID.TID 0000.0001)                 0.000000000000000E+00
(PID.TID 0000.0001)     ;
(PID.TID 0000.0001) latBandClimRelax =   /* max. Lat. where relaxation */
(PID.TID 0000.0001)                 1.800000000000000E+02
(PID.TID 0000.0001)     ;
(PID.TID 0000.0001) //
(PID.TID 0000.0001) // Gridding paramters ( PARM04 in namelist )
(PID.TID 0000.0001) //
(PID.TID 0000.0001) usingCartesianGrid = /* Cartesian coordinates flag ( True/False ) */
(PID.TID 0000.0001)                   F
(PID.TID 0000.0001)     ;
(PID.TID 0000.0001) usingCylindricalGrid = /* Cylindrical coordinates flag ( True/False ) */
(PID.TID 0000.0001)                   F
(PID.TID 0000.0001)     ;
(PID.TID 0000.0001) usingSphericalPolarGrid = /* Spherical coordinates flag ( True/False ) */
(PID.TID 0000.0001)                   T
(PID.TID 0000.0001)     ;
(PID.TID 0000.0001) usingCurvilinearGrid = /* Curvilinear coordinates flag ( True/False ) */
(PID.TID 0000.0001)                   F
(PID.TID 0000.0001)     ;
(PID.TID 0000.0001) selectSigmaCoord = /* Hybrid-Sigma Vert. Coordinate option */
(PID.TID 0000.0001)                       0
(PID.TID 0000.0001)     ;
(PID.TID 0000.0001) Ro_SeaLevel = /* r(1) ( units of r ==  m ) */
(PID.TID 0000.0001)                 0.000000000000000E+00
(PID.TID 0000.0001)     ;
(PID.TID 0000.0001) rSigmaBnd = /* r/sigma transition ( units of r ==  m ) */
(PID.TID 0000.0001)                 1.234567000000000E+05
(PID.TID 0000.0001)     ;
(PID.TID 0000.0001) rkSign =   /* index orientation relative to vertical coordinate */
(PID.TID 0000.0001)                -1.000000000000000E+00
(PID.TID 0000.0001)     ;
(PID.TID 0000.0001) gravitySign = /* gravity orientation relative to vertical coordinate */
(PID.TID 0000.0001)                -1.000000000000000E+00
(PID.TID 0000.0001)     ;
(PID.TID 0000.0001) mass2rUnit = /* convert mass per unit area [kg/m2] to r-units [m] */
(PID.TID 0000.0001)                 1.000200040008002E-03
(PID.TID 0000.0001)     ;
(PID.TID 0000.0001) rUnit2mass = /* convert r-units [m] to mass per unit area [kg/m2] */
(PID.TID 0000.0001)                 9.998000000000000E+02
(PID.TID 0000.0001)     ;
(PID.TID 0000.0001) drC =   /* C spacing ( units of r ) */
(PID.TID 0000.0001)                 5.000000000000000E+00,      /* K =  1 */
(PID.TID 0000.0001)    13 @  1.000000000000000E+01,             /* K =  2: 14 */
(PID.TID 0000.0001)                 1.250000000000000E+01,      /* K = 15 */
(PID.TID 0000.0001)     4 @  1.500000000000000E+01,             /* K = 16: 19 */
(PID.TID 0000.0001)                 1.750000000000000E+01,      /* K = 20 */
(PID.TID 0000.0001)     3 @  2.000000000000000E+01,             /* K = 21: 23 */
(PID.TID 0000.0001)                 3.500000000000000E+01,      /* K = 24 */
(PID.TID 0000.0001)                 5.000000000000000E+01,      /* K = 25 */
(PID.TID 0000.0001)                 7.500000000000000E+01,      /* K = 26 */
(PID.TID 0000.0001)                 1.250000000000000E+02,      /* K = 27 */
(PID.TID 0000.0001)                 1.500000000000000E+02,      /* K = 28 */
(PID.TID 0000.0001)                 1.750000000000000E+02,      /* K = 29 */
(PID.TID 0000.0001)                 2.500000000000000E+02,      /* K = 30 */
(PID.TID 0000.0001)                 3.500000000000000E+02,      /* K = 31 */
(PID.TID 0000.0001)     2 @  4.000000000000000E+02,             /* K = 32: 33 */
(PID.TID 0000.0001)                 4.500000000000000E+02,      /* K = 34 */
(PID.TID 0000.0001)                 5.000000000000000E+02       /* K = 35 */
(PID.TID 0000.0001)     ;
(PID.TID 0000.0001) drF =   /* W spacing ( units of r ) */
(PID.TID 0000.0001)    14 @  1.000000000000000E+01,             /* K =  1: 14 */
(PID.TID 0000.0001)     5 @  1.500000000000000E+01,             /* K = 15: 19 */
(PID.TID 0000.0001)     4 @  2.000000000000000E+01,             /* K = 20: 23 */
(PID.TID 0000.0001)     2 @  5.000000000000000E+01,             /* K = 24: 25 */
(PID.TID 0000.0001)                 1.000000000000000E+02,      /* K = 26 */
(PID.TID 0000.0001)     2 @  1.500000000000000E+02,             /* K = 27: 28 */
(PID.TID 0000.0001)                 2.000000000000000E+02,      /* K = 29 */
(PID.TID 0000.0001)                 3.000000000000000E+02,      /* K = 30 */
(PID.TID 0000.0001)     3 @  4.000000000000000E+02,             /* K = 31: 33 */
(PID.TID 0000.0001)     2 @  5.000000000000000E+02              /* K = 34: 35 */
(PID.TID 0000.0001)     ;
(PID.TID 0000.0001) delX = /* U spacing ( m - cartesian, degrees - spherical ) */
(PID.TID 0000.0001)                 1.000000000000000E+00       /* I =  1 */
(PID.TID 0000.0001)     ;
(PID.TID 0000.0001) delY = /* V spacing ( m - cartesian, degrees - spherical ) */
(PID.TID 0000.0001)                 1.000000000000000E+00       /* J =  1 */
(PID.TID 0000.0001)     ;
(PID.TID 0000.0001) xgOrigin = /* X-axis origin of West  edge (cartesian: m, lat-lon: deg.) */
(PID.TID 0000.0001)                 3.350000000000000E+02
(PID.TID 0000.0001)     ;
(PID.TID 0000.0001) ygOrigin = /* Y-axis origin of South edge (cartesian: m, lat-lon: deg.) */
(PID.TID 0000.0001)                -1.800000000000000E+01
(PID.TID 0000.0001)     ;
(PID.TID 0000.0001) rSphere =  /* Radius ( ignored - cartesian, m - spherical ) */
(PID.TID 0000.0001)                 6.370000000000000E+06
(PID.TID 0000.0001)     ;
(PID.TID 0000.0001) deepAtmosphere = /* Deep/Shallow Atmosphere flag (True/False) */
(PID.TID 0000.0001)                   F
(PID.TID 0000.0001)     ;
(PID.TID 0000.0001) xC =  /* xC(:,1,:,1) : P-point X coord ( deg. or m if cartesian) */
(PID.TID 0000.0001)                 3.355000000000000E+02       /* I =  1 */
(PID.TID 0000.0001)     ;
(PID.TID 0000.0001) yC =  /* yC(1,:,1,:) : P-point Y coord ( deg. or m if cartesian) */
(PID.TID 0000.0001)                -1.750000000000000E+01       /* J =  1 */
(PID.TID 0000.0001)     ;
(PID.TID 0000.0001) rcoord = /* P-point R coordinate (  units of r ) */
(PID.TID 0000.0001)                -5.000000000000000E+00,      /* K =  1 */
(PID.TID 0000.0001)                -1.500000000000000E+01,      /* K =  2 */
(PID.TID 0000.0001)                -2.500000000000000E+01,      /* K =  3 */
(PID.TID 0000.0001)                -3.500000000000000E+01,      /* K =  4 */
(PID.TID 0000.0001)                -4.500000000000000E+01,      /* K =  5 */
(PID.TID 0000.0001)                -5.500000000000000E+01,      /* K =  6 */
(PID.TID 0000.0001)                -6.500000000000000E+01,      /* K =  7 */
(PID.TID 0000.0001)                -7.500000000000000E+01,      /* K =  8 */
(PID.TID 0000.0001)                -8.500000000000000E+01,      /* K =  9 */
(PID.TID 0000.0001)                -9.500000000000000E+01,      /* K = 10 */
(PID.TID 0000.0001)                -1.050000000000000E+02,      /* K = 11 */
(PID.TID 0000.0001)                -1.150000000000000E+02,      /* K = 12 */
(PID.TID 0000.0001)                -1.250000000000000E+02,      /* K = 13 */
(PID.TID 0000.0001)                -1.350000000000000E+02,      /* K = 14 */
(PID.TID 0000.0001)                -1.475000000000000E+02,      /* K = 15 */
(PID.TID 0000.0001)                -1.625000000000000E+02,      /* K = 16 */
(PID.TID 0000.0001)                -1.775000000000000E+02,      /* K = 17 */
(PID.TID 0000.0001)                -1.925000000000000E+02,      /* K = 18 */
(PID.TID 0000.0001)                -2.075000000000000E+02,      /* K = 19 */
(PID.TID 0000.0001)                -2.250000000000000E+02,      /* K = 20 */
(PID.TID 0000.0001)                -2.450000000000000E+02,      /* K = 21 */
(PID.TID 0000.0001)                -2.650000000000000E+02,      /* K = 22 */
(PID.TID 0000.0001)                -2.850000000000000E+02,      /* K = 23 */
(PID.TID 0000.0001)                -3.200000000000000E+02,      /* K = 24 */
(PID.TID 0000.0001)                -3.700000000000000E+02,      /* K = 25 */
(PID.TID 0000.0001)                -4.450000000000000E+02,      /* K = 26 */
(PID.TID 0000.0001)                -5.700000000000000E+02,      /* K = 27 */
(PID.TID 0000.0001)                -7.200000000000000E+02,      /* K = 28 */
(PID.TID 0000.0001)                -8.950000000000000E+02,      /* K = 29 */
(PID.TID 0000.0001)                -1.145000000000000E+03,      /* K = 30 */
(PID.TID 0000.0001)                -1.495000000000000E+03,      /* K = 31 */
(PID.TID 0000.0001)                -1.895000000000000E+03,      /* K = 32 */
(PID.TID 0000.0001)                -2.295000000000000E+03,      /* K = 33 */
(PID.TID 0000.0001)                -2.745000000000000E+03,      /* K = 34 */
(PID.TID 0000.0001)                -3.245000000000000E+03       /* K = 35 */
(PID.TID 0000.0001)     ;
(PID.TID 0000.0001) rF =   /* W-Interf. R coordinate (  units of r ) */
(PID.TID 0000.0001)                 0.000000000000000E+00,      /* K =  1 */
(PID.TID 0000.0001)                -1.000000000000000E+01,      /* K =  2 */
(PID.TID 0000.0001)                -2.000000000000000E+01,      /* K =  3 */
(PID.TID 0000.0001)                -3.000000000000000E+01,      /* K =  4 */
(PID.TID 0000.0001)                -4.000000000000000E+01,      /* K =  5 */
(PID.TID 0000.0001)                -5.000000000000000E+01,      /* K =  6 */
(PID.TID 0000.0001)                -6.000000000000000E+01,      /* K =  7 */
(PID.TID 0000.0001)                -7.000000000000000E+01,      /* K =  8 */
(PID.TID 0000.0001)                -8.000000000000000E+01,      /* K =  9 */
(PID.TID 0000.0001)                -9.000000000000000E+01,      /* K = 10 */
(PID.TID 0000.0001)                -1.000000000000000E+02,      /* K = 11 */
(PID.TID 0000.0001)                -1.100000000000000E+02,      /* K = 12 */
(PID.TID 0000.0001)                -1.200000000000000E+02,      /* K = 13 */
(PID.TID 0000.0001)                -1.300000000000000E+02,      /* K = 14 */
(PID.TID 0000.0001)                -1.400000000000000E+02,      /* K = 15 */
(PID.TID 0000.0001)                -1.550000000000000E+02,      /* K = 16 */
(PID.TID 0000.0001)                -1.700000000000000E+02,      /* K = 17 */
(PID.TID 0000.0001)                -1.850000000000000E+02,      /* K = 18 */
(PID.TID 0000.0001)                -2.000000000000000E+02,      /* K = 19 */
(PID.TID 0000.0001)                -2.150000000000000E+02,      /* K = 20 */
(PID.TID 0000.0001)                -2.350000000000000E+02,      /* K = 21 */
(PID.TID 0000.0001)                -2.550000000000000E+02,      /* K = 22 */
(PID.TID 0000.0001)                -2.750000000000000E+02,      /* K = 23 */
(PID.TID 0000.0001)                -2.950000000000000E+02,      /* K = 24 */
(PID.TID 0000.0001)                -3.450000000000000E+02,      /* K = 25 */
(PID.TID 0000.0001)                -3.950000000000000E+02,      /* K = 26 */
(PID.TID 0000.0001)                -4.950000000000000E+02,      /* K = 27 */
(PID.TID 0000.0001)                -6.450000000000000E+02,      /* K = 28 */
(PID.TID 0000.0001)                -7.950000000000000E+02,      /* K = 29 */
(PID.TID 0000.0001)                -9.950000000000000E+02,      /* K = 30 */
(PID.TID 0000.0001)                -1.295000000000000E+03,      /* K = 31 */
(PID.TID 0000.0001)                -1.695000000000000E+03,      /* K = 32 */
(PID.TID 0000.0001)                -2.095000000000000E+03,      /* K = 33 */
(PID.TID 0000.0001)                -2.495000000000000E+03,      /* K = 34 */
(PID.TID 0000.0001)                -2.995000000000000E+03,      /* K = 35 */
(PID.TID 0000.0001)                -3.495000000000000E+03       /* K = 36 */
(PID.TID 0000.0001)     ;
(PID.TID 0000.0001) deepFacC = /* deep-model grid factor @ cell-Center (-) */
(PID.TID 0000.0001)    35 @  1.000000000000000E+00              /* K =  1: 35 */
(PID.TID 0000.0001)     ;
(PID.TID 0000.0001) deepFacF = /* deep-model grid factor @ W-Interface (-) */
(PID.TID 0000.0001)    36 @  1.000000000000000E+00              /* K =  1: 36 */
(PID.TID 0000.0001)     ;
(PID.TID 0000.0001) rVel2wUnit = /* convert units: rVel -> wSpeed (=1 if z-coord)*/
(PID.TID 0000.0001)    36 @  1.000000000000000E+00              /* K =  1: 36 */
(PID.TID 0000.0001)     ;
(PID.TID 0000.0001) wUnit2rVel = /* convert units: wSpeed -> rVel (=1 if z-coord)*/
(PID.TID 0000.0001)    36 @  1.000000000000000E+00              /* K =  1: 36 */
(PID.TID 0000.0001)     ;
(PID.TID 0000.0001) dBdrRef = /* Vertical grad. of reference buoyancy [(m/s/r)^2] */
(PID.TID 0000.0001)                 0.000000000000000E+00,      /* K =  1 */
(PID.TID 0000.0001)                 1.232578190459821E-04,      /* K =  2 */
(PID.TID 0000.0001)                 3.063957957303617E-05,      /* K =  3 */
(PID.TID 0000.0001)                 1.521320422054373E-04,      /* K =  4 */
(PID.TID 0000.0001)                 3.021271930223580E-05,      /* K =  5 */
(PID.TID 0000.0001)                 1.499903428890670E-04,      /* K =  6 */
(PID.TID 0000.0001)                 1.186737265074332E-04,      /* K =  7 */
(PID.TID 0000.0001)                 1.466841384627423E-04,      /* K =  8 */
(PID.TID 0000.0001)                 8.712618931102987E-05,      /* K =  9 */
(PID.TID 0000.0001)                 1.151380441308261E-04,      /* K = 10 */
(PID.TID 0000.0001)                 5.712979717883684E-05,      /* K = 11 */
(PID.TID 0000.0001)                 8.515049872565506E-05,      /* K = 12 */
(PID.TID 0000.0001)                 8.448721842774896E-05,      /* K = 13 */
(PID.TID 0000.0001)                 1.116043428725511E-04,      /* K = 14 */
(PID.TID 0000.0001)                 1.102373809396796E-04,      /* K = 15 */
(PID.TID 0000.0001)                 1.798828639202717E-04,      /* K = 16 */
(PID.TID 0000.0001)                 1.918102676980872E-04,      /* K = 17 */
(PID.TID 0000.0001)                 1.853506120896664E-04,      /* K = 18 */
(PID.TID 0000.0001)                 1.787791674911888E-04,      /* K = 19 */
(PID.TID 0000.0001)                 9.455522998141848E-05,      /* K = 20 */
(PID.TID 0000.0001)                 1.259231836379978E-04,      /* K = 21 */
(PID.TID 0000.0001)                 9.923620256554768E-05,      /* K = 22 */
(PID.TID 0000.0001)                 8.531935398693722E-05,      /* K = 23 */
(PID.TID 0000.0001)                 4.137475825384700E-05,      /* K = 24 */
(PID.TID 0000.0001)                 5.930109718499171E-05,      /* K = 25 */
(PID.TID 0000.0001)                 3.689739454308316E-05,      /* K = 26 */
(PID.TID 0000.0001)                 3.215311288275425E-05,      /* K = 27 */
(PID.TID 0000.0001)                 2.340106578013931E-05,      /* K = 28 */
(PID.TID 0000.0001)                 8.957465806881803E-06,      /* K = 29 */
(PID.TID 0000.0001)                 2.029141226789735E-06,      /* K = 30 */
(PID.TID 0000.0001)                 0.000000000000000E+00,      /* K = 31 */
(PID.TID 0000.0001)                 1.052869956707729E-06,      /* K = 32 */
(PID.TID 0000.0001)                 1.465965950004292E-06,      /* K = 33 */
(PID.TID 0000.0001)                 6.817081889333135E-07,      /* K = 34 */
(PID.TID 0000.0001)                 6.544800624285541E-07       /* K = 35 */
(PID.TID 0000.0001)     ;
(PID.TID 0000.0001) rotateGrid = /* use rotated grid ( True/False ) */
(PID.TID 0000.0001)                   F
(PID.TID 0000.0001)     ;
(PID.TID 0000.0001) phiEuler = /* Euler angle, rotation about original z-coordinate [rad] */
(PID.TID 0000.0001)                 0.000000000000000E+00
(PID.TID 0000.0001)     ;
(PID.TID 0000.0001) thetaEuler = /* Euler angle, rotation about new x-coordinate [rad] */
(PID.TID 0000.0001)                 0.000000000000000E+00
(PID.TID 0000.0001)     ;
(PID.TID 0000.0001) psiEuler = /* Euler angle, rotation about new z-coordinate [rad] */
(PID.TID 0000.0001)                 0.000000000000000E+00
(PID.TID 0000.0001)     ;
(PID.TID 0000.0001) dxF =  /* dxF(:,1,:,1) ( units: m ) */
(PID.TID 0000.0001)                 1.060318408771987E+05       /* I =  1 */
(PID.TID 0000.0001)     ;
(PID.TID 0000.0001) dxF =  /* dxF(1,:,1,:) ( units: m ) */
(PID.TID 0000.0001)                 1.060318408771987E+05       /* J =  1 */
(PID.TID 0000.0001)     ;
(PID.TID 0000.0001) dyF =  /* dyF(:,1,:,1) ( units: m ) */
(PID.TID 0000.0001)                 1.111774733520388E+05       /* I =  1 */
(PID.TID 0000.0001)     ;
(PID.TID 0000.0001) dyF =  /* dyF(1,:,1,:) ( units: m ) */
(PID.TID 0000.0001)                 1.111774733520388E+05       /* J =  1 */
(PID.TID 0000.0001)     ;
(PID.TID 0000.0001) dxG =  /* dxG(:,1,:,1) ( units: m ) */
(PID.TID 0000.0001)                 1.057360604966873E+05       /* I =  1 */
(PID.TID 0000.0001)     ;
(PID.TID 0000.0001) dxG =  /* dxG(1,:,1,:) ( units: m ) */
(PID.TID 0000.0001)                 1.057360604966873E+05       /* J =  1 */
(PID.TID 0000.0001)     ;
(PID.TID 0000.0001) dyG =  /* dyG(:,1,:,1) ( units: m ) */
(PID.TID 0000.0001)                 1.111774733520388E+05       /* I =  1 */
(PID.TID 0000.0001)     ;
(PID.TID 0000.0001) dyG =  /* dyG(1,:,1,:) ( units: m ) */
(PID.TID 0000.0001)                 1.111774733520388E+05       /* J =  1 */
(PID.TID 0000.0001)     ;
(PID.TID 0000.0001) dxC =  /* dxC(:,1,:,1) ( units: m ) */
(PID.TID 0000.0001)                 1.060318408771987E+05       /* I =  1 */
(PID.TID 0000.0001)     ;
(PID.TID 0000.0001) dxC =  /* dxC(1,:,1,:) ( units: m ) */
(PID.TID 0000.0001)                 1.060318408771987E+05       /* J =  1 */
(PID.TID 0000.0001)     ;
(PID.TID 0000.0001) dyC =  /* dyC(:,1,:,1) ( units: m ) */
(PID.TID 0000.0001)                 1.111774733520388E+05       /* I =  1 */
(PID.TID 0000.0001)     ;
(PID.TID 0000.0001) dyC =  /* dyC(1,:,1,:) ( units: m ) */
(PID.TID 0000.0001)                 1.111774733520388E+05       /* J =  1 */
(PID.TID 0000.0001)     ;
(PID.TID 0000.0001) dxV =  /* dxV(:,1,:,1) ( units: m ) */
(PID.TID 0000.0001)                 1.057360604966873E+05       /* I =  1 */
(PID.TID 0000.0001)     ;
(PID.TID 0000.0001) dxV =  /* dxV(1,:,1,:) ( units: m ) */
(PID.TID 0000.0001)                 1.057360604966873E+05       /* J =  1 */
(PID.TID 0000.0001)     ;
(PID.TID 0000.0001) dyU =  /* dyU(:,1,:,1) ( units: m ) */
(PID.TID 0000.0001)                 1.111774733520388E+05       /* I =  1 */
(PID.TID 0000.0001)     ;
(PID.TID 0000.0001) dyU =  /* dyU(1,:,1,:) ( units: m ) */
(PID.TID 0000.0001)                 1.111774733520388E+05       /* J =  1 */
(PID.TID 0000.0001)     ;
(PID.TID 0000.0001) rA  =  /* rA (:,1,:,1) ( units: m^2 ) */
(PID.TID 0000.0001)                 1.178820254176956E+10       /* I =  1 */
(PID.TID 0000.0001)     ;
(PID.TID 0000.0001) rA  =  /* rA (1,:,1,:) ( units: m^2 ) */
(PID.TID 0000.0001)                 1.178820254176956E+10       /* J =  1 */
(PID.TID 0000.0001)     ;
(PID.TID 0000.0001) rAw =  /* rAw(:,1,:,1) ( units: m^2 ) */
(PID.TID 0000.0001)                 1.178820254176956E+10       /* I =  1 */
(PID.TID 0000.0001)     ;
(PID.TID 0000.0001) rAw =  /* rAw(1,:,1,:) ( units: m^2 ) */
(PID.TID 0000.0001)                 1.178820254176956E+10       /* J =  1 */
(PID.TID 0000.0001)     ;
(PID.TID 0000.0001) rAs =  /* rAs(:,1,:,1) ( units: m^2 ) */
(PID.TID 0000.0001)                 1.175531884377377E+10       /* I =  1 */
(PID.TID 0000.0001)     ;
(PID.TID 0000.0001) rAs =  /* rAs(1,:,1,:) ( units: m^2 ) */
(PID.TID 0000.0001)                 1.175531884377377E+10       /* J =  1 */
(PID.TID 0000.0001)     ;
(PID.TID 0000.0001) globalArea = /* Integrated horizontal Area (m^2) */
(PID.TID 0000.0001)                 1.178820254176956E+10
(PID.TID 0000.0001)     ;
(PID.TID 0000.0001) // =======================================================
(PID.TID 0000.0001) // End of Model config. summary
(PID.TID 0000.0001) // =======================================================
(PID.TID 0000.0001) 
(PID.TID 0000.0001) == Packages configuration : Check & print summary ==
(PID.TID 0000.0001) 
(PID.TID 0000.0001) KPP_CHECK: #define ALLOW_KPP
(PID.TID 0000.0001) PTRACERS_CHECK: #define ALLOW_PTRACERS
(PID.TID 0000.0001) PTRACERS_CHECK: updated GAD_OlMinSize=  2  0  1
(PID.TID 0000.0001) // ===================================
(PID.TID 0000.0001) // PTRACERS parameters
(PID.TID 0000.0001) // ===================================
(PID.TID 0000.0001) PTRACERS_numInUse = /* number of tracers */
(PID.TID 0000.0001)                      74
(PID.TID 0000.0001)     ;
(PID.TID 0000.0001) PTRACERS_Iter0 = /* timestep number when tracers are initialized */
(PID.TID 0000.0001)                       0
(PID.TID 0000.0001)     ;
(PID.TID 0000.0001) PTRACERS_startAllTrc =/* all tracers start @ startTime */
(PID.TID 0000.0001)                   T
(PID.TID 0000.0001)     ;
(PID.TID 0000.0001) PTRACERS_addSrelax2EmP =/* add Salt relaxation to EmP */
(PID.TID 0000.0001)                   F
(PID.TID 0000.0001)     ;
(PID.TID 0000.0001) PTRACERS_dTLev =   /* Ptracer timestep ( s ) */
(PID.TID 0000.0001)    35 @  1.080000000000000E+04              /* K =  1: 35 */
(PID.TID 0000.0001)     ;
(PID.TID 0000.0001) PTRACERS_dumpFreq = /* Frequency^-1 for snapshot output (s) */
(PID.TID 0000.0001)                 3.110400000000000E+07
(PID.TID 0000.0001)     ;
(PID.TID 0000.0001) PTRACERS_taveFreq = /* Frequency^-1 for time-Aver. output (s) */
(PID.TID 0000.0001)                 8.640000000000000E+04
(PID.TID 0000.0001)     ;
(PID.TID 0000.0001) PTRACERS_useRecords = /* all tracers in 1 file */
(PID.TID 0000.0001)                   F
(PID.TID 0000.0001)     ;
(PID.TID 0000.0001) PTRACERS_timeave_mnc = /* use MNC for Tave output */
(PID.TID 0000.0001)                   T
(PID.TID 0000.0001)     ;
(PID.TID 0000.0001) PTRACERS_snapshot_mnc = /* use MNC for snapshot output */
(PID.TID 0000.0001)                   T
(PID.TID 0000.0001)     ;
(PID.TID 0000.0001) PTRACERS_pickup_write_mnc = /* use MNC for writing pickups */
(PID.TID 0000.0001)                   F
(PID.TID 0000.0001)     ;
(PID.TID 0000.0001) PTRACERS_pickup_read_mnc = /* use MNC for reading pickups */
(PID.TID 0000.0001)                   F
(PID.TID 0000.0001)     ;
(PID.TID 0000.0001)  -----------------------------------
(PID.TID 0000.0001)  tracer number :    1
(PID.TID 0000.0001) PTRACERS_names = /* Tracer short name */
(PID.TID 0000.0001)               'DIC'
(PID.TID 0000.0001)     ;
(PID.TID 0000.0001) PTRACERS_long_names = /* Tracer long name */
(PID.TID 0000.0001)               ''
(PID.TID 0000.0001)     ;
(PID.TID 0000.0001) PTRACERS_ioLabel = /* tracer IO Label */
(PID.TID 0000.0001)               '01'
(PID.TID 0000.0001)     ;
(PID.TID 0000.0001) PTRACERS_advScheme = /* Advection Scheme */
(PID.TID 0000.0001)                      33
(PID.TID 0000.0001)     ;
(PID.TID 0000.0001) PTRACERS_SOM_Advection = /* tracer uses SOM advection scheme */
(PID.TID 0000.0001)                   F
(PID.TID 0000.0001)     ;
(PID.TID 0000.0001) PTRACERS_ImplVertAdv = /* implicit vert. advection flag */
(PID.TID 0000.0001)                   F
(PID.TID 0000.0001)     ;
(PID.TID 0000.0001) PTRACERS_diffKh = /* Laplacian Diffusivity */
(PID.TID 0000.0001)                 0.000000000000000E+00
(PID.TID 0000.0001)     ;
(PID.TID 0000.0001) PTRACERS_diffK4 = /* Biharmonic Diffusivity */
(PID.TID 0000.0001)                 0.000000000000000E+00
(PID.TID 0000.0001)     ;
(PID.TID 0000.0001) PTRACERS_diffKrNr = /* Vertical Diffusivity */
(PID.TID 0000.0001)    35 @  1.000000000000000E-05              /* K =  1: 35 */
(PID.TID 0000.0001)     ;
(PID.TID 0000.0001) PTRACERS_useGMRedi = /* apply GM-Redi */
(PID.TID 0000.0001)                   F
(PID.TID 0000.0001)     ;
(PID.TID 0000.0001) PTRACERS_useDWNSLP = /* apply DOWN-SLOPE Flow */
(PID.TID 0000.0001)                   F
(PID.TID 0000.0001)     ;
(PID.TID 0000.0001) PTRACERS_useKPP = /* apply KPP scheme */
(PID.TID 0000.0001)                   T
(PID.TID 0000.0001)     ;
(PID.TID 0000.0001) PTRACERS_ref = /* Reference vertical profile */
(PID.TID 0000.0001)    35 @  0.000000000000000E+00              /* K =  1: 35 */
(PID.TID 0000.0001)     ;
(PID.TID 0000.0001) PTRACERS_EvPrRn =/* tracer conc. in Evap. & Rain */
(PID.TID 0000.0001)                 1.234567000000000E+05
(PID.TID 0000.0001)     ;
(PID.TID 0000.0001)  -----------------------------------
(PID.TID 0000.0001)  tracer number :    2
(PID.TID 0000.0001) PTRACERS_names = /* Tracer short name */
(PID.TID 0000.0001)               'NO3'
(PID.TID 0000.0001)     ;
(PID.TID 0000.0001) PTRACERS_long_names = /* Tracer long name */
(PID.TID 0000.0001)               ''
(PID.TID 0000.0001)     ;
(PID.TID 0000.0001) PTRACERS_ioLabel = /* tracer IO Label */
(PID.TID 0000.0001)               '02'
(PID.TID 0000.0001)     ;
(PID.TID 0000.0001) PTRACERS_advScheme = /* Advection Scheme */
(PID.TID 0000.0001)                      33
(PID.TID 0000.0001)     ;
(PID.TID 0000.0001) PTRACERS_SOM_Advection = /* tracer uses SOM advection scheme */
(PID.TID 0000.0001)                   F
(PID.TID 0000.0001)     ;
(PID.TID 0000.0001) PTRACERS_ImplVertAdv = /* implicit vert. advection flag */
(PID.TID 0000.0001)                   F
(PID.TID 0000.0001)     ;
(PID.TID 0000.0001) PTRACERS_diffKh = /* Laplacian Diffusivity */
(PID.TID 0000.0001)                 0.000000000000000E+00
(PID.TID 0000.0001)     ;
(PID.TID 0000.0001) PTRACERS_diffK4 = /* Biharmonic Diffusivity */
(PID.TID 0000.0001)                 0.000000000000000E+00
(PID.TID 0000.0001)     ;
(PID.TID 0000.0001) PTRACERS_diffKrNr = /* Vertical Diffusivity */
(PID.TID 0000.0001)    35 @  1.000000000000000E-05              /* K =  1: 35 */
(PID.TID 0000.0001)     ;
(PID.TID 0000.0001) PTRACERS_useGMRedi = /* apply GM-Redi */
(PID.TID 0000.0001)                   F
(PID.TID 0000.0001)     ;
(PID.TID 0000.0001) PTRACERS_useDWNSLP = /* apply DOWN-SLOPE Flow */
(PID.TID 0000.0001)                   F
(PID.TID 0000.0001)     ;
(PID.TID 0000.0001) PTRACERS_useKPP = /* apply KPP scheme */
(PID.TID 0000.0001)                   T
(PID.TID 0000.0001)     ;
(PID.TID 0000.0001) PTRACERS_ref = /* Reference vertical profile */
(PID.TID 0000.0001)    35 @  0.000000000000000E+00              /* K =  1: 35 */
(PID.TID 0000.0001)     ;
(PID.TID 0000.0001) PTRACERS_EvPrRn =/* tracer conc. in Evap. & Rain */
(PID.TID 0000.0001)                 1.234567000000000E+05
(PID.TID 0000.0001)     ;
(PID.TID 0000.0001)  -----------------------------------
(PID.TID 0000.0001)  tracer number :    3
(PID.TID 0000.0001) PTRACERS_names = /* Tracer short name */
(PID.TID 0000.0001)               'NO2'
(PID.TID 0000.0001)     ;
(PID.TID 0000.0001) PTRACERS_long_names = /* Tracer long name */
(PID.TID 0000.0001)               ''
(PID.TID 0000.0001)     ;
(PID.TID 0000.0001) PTRACERS_ioLabel = /* tracer IO Label */
(PID.TID 0000.0001)               '03'
(PID.TID 0000.0001)     ;
(PID.TID 0000.0001) PTRACERS_advScheme = /* Advection Scheme */
(PID.TID 0000.0001)                      33
(PID.TID 0000.0001)     ;
(PID.TID 0000.0001) PTRACERS_SOM_Advection = /* tracer uses SOM advection scheme */
(PID.TID 0000.0001)                   F
(PID.TID 0000.0001)     ;
(PID.TID 0000.0001) PTRACERS_ImplVertAdv = /* implicit vert. advection flag */
(PID.TID 0000.0001)                   F
(PID.TID 0000.0001)     ;
(PID.TID 0000.0001) PTRACERS_diffKh = /* Laplacian Diffusivity */
(PID.TID 0000.0001)                 0.000000000000000E+00
(PID.TID 0000.0001)     ;
(PID.TID 0000.0001) PTRACERS_diffK4 = /* Biharmonic Diffusivity */
(PID.TID 0000.0001)                 0.000000000000000E+00
(PID.TID 0000.0001)     ;
(PID.TID 0000.0001) PTRACERS_diffKrNr = /* Vertical Diffusivity */
(PID.TID 0000.0001)    35 @  1.000000000000000E-05              /* K =  1: 35 */
(PID.TID 0000.0001)     ;
(PID.TID 0000.0001) PTRACERS_useGMRedi = /* apply GM-Redi */
(PID.TID 0000.0001)                   F
(PID.TID 0000.0001)     ;
(PID.TID 0000.0001) PTRACERS_useDWNSLP = /* apply DOWN-SLOPE Flow */
(PID.TID 0000.0001)                   F
(PID.TID 0000.0001)     ;
(PID.TID 0000.0001) PTRACERS_useKPP = /* apply KPP scheme */
(PID.TID 0000.0001)                   T
(PID.TID 0000.0001)     ;
(PID.TID 0000.0001) PTRACERS_ref = /* Reference vertical profile */
(PID.TID 0000.0001)    35 @  0.000000000000000E+00              /* K =  1: 35 */
(PID.TID 0000.0001)     ;
(PID.TID 0000.0001) PTRACERS_EvPrRn =/* tracer conc. in Evap. & Rain */
(PID.TID 0000.0001)                 1.234567000000000E+05
(PID.TID 0000.0001)     ;
(PID.TID 0000.0001)  -----------------------------------
(PID.TID 0000.0001)  tracer number :    4
(PID.TID 0000.0001) PTRACERS_names = /* Tracer short name */
(PID.TID 0000.0001)               'NH4'
(PID.TID 0000.0001)     ;
(PID.TID 0000.0001) PTRACERS_long_names = /* Tracer long name */
(PID.TID 0000.0001)               ''
(PID.TID 0000.0001)     ;
(PID.TID 0000.0001) PTRACERS_ioLabel = /* tracer IO Label */
(PID.TID 0000.0001)               '04'
(PID.TID 0000.0001)     ;
(PID.TID 0000.0001) PTRACERS_advScheme = /* Advection Scheme */
(PID.TID 0000.0001)                      33
(PID.TID 0000.0001)     ;
(PID.TID 0000.0001) PTRACERS_SOM_Advection = /* tracer uses SOM advection scheme */
(PID.TID 0000.0001)                   F
(PID.TID 0000.0001)     ;
(PID.TID 0000.0001) PTRACERS_ImplVertAdv = /* implicit vert. advection flag */
(PID.TID 0000.0001)                   F
(PID.TID 0000.0001)     ;
(PID.TID 0000.0001) PTRACERS_diffKh = /* Laplacian Diffusivity */
(PID.TID 0000.0001)                 0.000000000000000E+00
(PID.TID 0000.0001)     ;
(PID.TID 0000.0001) PTRACERS_diffK4 = /* Biharmonic Diffusivity */
(PID.TID 0000.0001)                 0.000000000000000E+00
(PID.TID 0000.0001)     ;
(PID.TID 0000.0001) PTRACERS_diffKrNr = /* Vertical Diffusivity */
(PID.TID 0000.0001)    35 @  1.000000000000000E-05              /* K =  1: 35 */
(PID.TID 0000.0001)     ;
(PID.TID 0000.0001) PTRACERS_useGMRedi = /* apply GM-Redi */
(PID.TID 0000.0001)                   F
(PID.TID 0000.0001)     ;
(PID.TID 0000.0001) PTRACERS_useDWNSLP = /* apply DOWN-SLOPE Flow */
(PID.TID 0000.0001)                   F
(PID.TID 0000.0001)     ;
(PID.TID 0000.0001) PTRACERS_useKPP = /* apply KPP scheme */
(PID.TID 0000.0001)                   T
(PID.TID 0000.0001)     ;
(PID.TID 0000.0001) PTRACERS_ref = /* Reference vertical profile */
(PID.TID 0000.0001)    35 @  0.000000000000000E+00              /* K =  1: 35 */
(PID.TID 0000.0001)     ;
(PID.TID 0000.0001) PTRACERS_EvPrRn =/* tracer conc. in Evap. & Rain */
(PID.TID 0000.0001)                 1.234567000000000E+05
(PID.TID 0000.0001)     ;
(PID.TID 0000.0001)  -----------------------------------
(PID.TID 0000.0001)  tracer number :    5
(PID.TID 0000.0001) PTRACERS_names = /* Tracer short name */
(PID.TID 0000.0001)               'FeT'
(PID.TID 0000.0001)     ;
(PID.TID 0000.0001) PTRACERS_long_names = /* Tracer long name */
(PID.TID 0000.0001)               ''
(PID.TID 0000.0001)     ;
(PID.TID 0000.0001) PTRACERS_ioLabel = /* tracer IO Label */
(PID.TID 0000.0001)               '05'
(PID.TID 0000.0001)     ;
(PID.TID 0000.0001) PTRACERS_advScheme = /* Advection Scheme */
(PID.TID 0000.0001)                      33
(PID.TID 0000.0001)     ;
(PID.TID 0000.0001) PTRACERS_SOM_Advection = /* tracer uses SOM advection scheme */
(PID.TID 0000.0001)                   F
(PID.TID 0000.0001)     ;
(PID.TID 0000.0001) PTRACERS_ImplVertAdv = /* implicit vert. advection flag */
(PID.TID 0000.0001)                   F
(PID.TID 0000.0001)     ;
(PID.TID 0000.0001) PTRACERS_diffKh = /* Laplacian Diffusivity */
(PID.TID 0000.0001)                 0.000000000000000E+00
(PID.TID 0000.0001)     ;
(PID.TID 0000.0001) PTRACERS_diffK4 = /* Biharmonic Diffusivity */
(PID.TID 0000.0001)                 0.000000000000000E+00
(PID.TID 0000.0001)     ;
(PID.TID 0000.0001) PTRACERS_diffKrNr = /* Vertical Diffusivity */
(PID.TID 0000.0001)    35 @  1.000000000000000E-05              /* K =  1: 35 */
(PID.TID 0000.0001)     ;
(PID.TID 0000.0001) PTRACERS_useGMRedi = /* apply GM-Redi */
(PID.TID 0000.0001)                   F
(PID.TID 0000.0001)     ;
(PID.TID 0000.0001) PTRACERS_useDWNSLP = /* apply DOWN-SLOPE Flow */
(PID.TID 0000.0001)                   F
(PID.TID 0000.0001)     ;
(PID.TID 0000.0001) PTRACERS_useKPP = /* apply KPP scheme */
(PID.TID 0000.0001)                   T
(PID.TID 0000.0001)     ;
(PID.TID 0000.0001) PTRACERS_ref = /* Reference vertical profile */
(PID.TID 0000.0001)    35 @  0.000000000000000E+00              /* K =  1: 35 */
(PID.TID 0000.0001)     ;
(PID.TID 0000.0001) PTRACERS_EvPrRn =/* tracer conc. in Evap. & Rain */
(PID.TID 0000.0001)                 1.234567000000000E+05
(PID.TID 0000.0001)     ;
(PID.TID 0000.0001)  -----------------------------------
(PID.TID 0000.0001)  tracer number :    6
(PID.TID 0000.0001) PTRACERS_names = /* Tracer short name */
(PID.TID 0000.0001)               'BIO_1_001'
(PID.TID 0000.0001)     ;
(PID.TID 0000.0001) PTRACERS_long_names = /* Tracer long name */
(PID.TID 0000.0001)               ''
(PID.TID 0000.0001)     ;
(PID.TID 0000.0001) PTRACERS_ioLabel = /* tracer IO Label */
(PID.TID 0000.0001)               '06'
(PID.TID 0000.0001)     ;
(PID.TID 0000.0001) PTRACERS_advScheme = /* Advection Scheme */
(PID.TID 0000.0001)                      33
(PID.TID 0000.0001)     ;
(PID.TID 0000.0001) PTRACERS_SOM_Advection = /* tracer uses SOM advection scheme */
(PID.TID 0000.0001)                   F
(PID.TID 0000.0001)     ;
(PID.TID 0000.0001) PTRACERS_ImplVertAdv = /* implicit vert. advection flag */
(PID.TID 0000.0001)                   F
(PID.TID 0000.0001)     ;
(PID.TID 0000.0001) PTRACERS_diffKh = /* Laplacian Diffusivity */
(PID.TID 0000.0001)                 0.000000000000000E+00
(PID.TID 0000.0001)     ;
(PID.TID 0000.0001) PTRACERS_diffK4 = /* Biharmonic Diffusivity */
(PID.TID 0000.0001)                 0.000000000000000E+00
(PID.TID 0000.0001)     ;
(PID.TID 0000.0001) PTRACERS_diffKrNr = /* Vertical Diffusivity */
(PID.TID 0000.0001)    35 @  1.000000000000000E-05              /* K =  1: 35 */
(PID.TID 0000.0001)     ;
(PID.TID 0000.0001) PTRACERS_useGMRedi = /* apply GM-Redi */
(PID.TID 0000.0001)                   F
(PID.TID 0000.0001)     ;
(PID.TID 0000.0001) PTRACERS_useDWNSLP = /* apply DOWN-SLOPE Flow */
(PID.TID 0000.0001)                   F
(PID.TID 0000.0001)     ;
(PID.TID 0000.0001) PTRACERS_useKPP = /* apply KPP scheme */
(PID.TID 0000.0001)                   T
(PID.TID 0000.0001)     ;
(PID.TID 0000.0001) PTRACERS_ref = /* Reference vertical profile */
(PID.TID 0000.0001)    35 @  0.000000000000000E+00              /* K =  1: 35 */
(PID.TID 0000.0001)     ;
(PID.TID 0000.0001) PTRACERS_EvPrRn =/* tracer conc. in Evap. & Rain */
(PID.TID 0000.0001)                 1.234567000000000E+05
(PID.TID 0000.0001)     ;
(PID.TID 0000.0001)  -----------------------------------
(PID.TID 0000.0001)  tracer number :    7
(PID.TID 0000.0001) PTRACERS_names = /* Tracer short name */
(PID.TID 0000.0001)               'BIO_1_002'
(PID.TID 0000.0001)     ;
(PID.TID 0000.0001) PTRACERS_long_names = /* Tracer long name */
(PID.TID 0000.0001)               ''
(PID.TID 0000.0001)     ;
(PID.TID 0000.0001) PTRACERS_ioLabel = /* tracer IO Label */
(PID.TID 0000.0001)               '07'
(PID.TID 0000.0001)     ;
(PID.TID 0000.0001) PTRACERS_advScheme = /* Advection Scheme */
(PID.TID 0000.0001)                      33
(PID.TID 0000.0001)     ;
(PID.TID 0000.0001) PTRACERS_SOM_Advection = /* tracer uses SOM advection scheme */
(PID.TID 0000.0001)                   F
(PID.TID 0000.0001)     ;
(PID.TID 0000.0001) PTRACERS_ImplVertAdv = /* implicit vert. advection flag */
(PID.TID 0000.0001)                   F
(PID.TID 0000.0001)     ;
(PID.TID 0000.0001) PTRACERS_diffKh = /* Laplacian Diffusivity */
(PID.TID 0000.0001)                 0.000000000000000E+00
(PID.TID 0000.0001)     ;
(PID.TID 0000.0001) PTRACERS_diffK4 = /* Biharmonic Diffusivity */
(PID.TID 0000.0001)                 0.000000000000000E+00
(PID.TID 0000.0001)     ;
(PID.TID 0000.0001) PTRACERS_diffKrNr = /* Vertical Diffusivity */
(PID.TID 0000.0001)    35 @  1.000000000000000E-05              /* K =  1: 35 */
(PID.TID 0000.0001)     ;
(PID.TID 0000.0001) PTRACERS_useGMRedi = /* apply GM-Redi */
(PID.TID 0000.0001)                   F
(PID.TID 0000.0001)     ;
(PID.TID 0000.0001) PTRACERS_useDWNSLP = /* apply DOWN-SLOPE Flow */
(PID.TID 0000.0001)                   F
(PID.TID 0000.0001)     ;
(PID.TID 0000.0001) PTRACERS_useKPP = /* apply KPP scheme */
(PID.TID 0000.0001)                   T
(PID.TID 0000.0001)     ;
(PID.TID 0000.0001) PTRACERS_ref = /* Reference vertical profile */
(PID.TID 0000.0001)    35 @  0.000000000000000E+00              /* K =  1: 35 */
(PID.TID 0000.0001)     ;
(PID.TID 0000.0001) PTRACERS_EvPrRn =/* tracer conc. in Evap. & Rain */
(PID.TID 0000.0001)                 1.234567000000000E+05
(PID.TID 0000.0001)     ;
(PID.TID 0000.0001)  -----------------------------------
(PID.TID 0000.0001)  tracer number :    8
(PID.TID 0000.0001) PTRACERS_names = /* Tracer short name */
(PID.TID 0000.0001)               'BIO_1_003'
(PID.TID 0000.0001)     ;
(PID.TID 0000.0001) PTRACERS_long_names = /* Tracer long name */
(PID.TID 0000.0001)               ''
(PID.TID 0000.0001)     ;
(PID.TID 0000.0001) PTRACERS_ioLabel = /* tracer IO Label */
(PID.TID 0000.0001)               '08'
(PID.TID 0000.0001)     ;
(PID.TID 0000.0001) PTRACERS_advScheme = /* Advection Scheme */
(PID.TID 0000.0001)                      33
(PID.TID 0000.0001)     ;
(PID.TID 0000.0001) PTRACERS_SOM_Advection = /* tracer uses SOM advection scheme */
(PID.TID 0000.0001)                   F
(PID.TID 0000.0001)     ;
(PID.TID 0000.0001) PTRACERS_ImplVertAdv = /* implicit vert. advection flag */
(PID.TID 0000.0001)                   F
(PID.TID 0000.0001)     ;
(PID.TID 0000.0001) PTRACERS_diffKh = /* Laplacian Diffusivity */
(PID.TID 0000.0001)                 0.000000000000000E+00
(PID.TID 0000.0001)     ;
(PID.TID 0000.0001) PTRACERS_diffK4 = /* Biharmonic Diffusivity */
(PID.TID 0000.0001)                 0.000000000000000E+00
(PID.TID 0000.0001)     ;
(PID.TID 0000.0001) PTRACERS_diffKrNr = /* Vertical Diffusivity */
(PID.TID 0000.0001)    35 @  1.000000000000000E-05              /* K =  1: 35 */
(PID.TID 0000.0001)     ;
(PID.TID 0000.0001) PTRACERS_useGMRedi = /* apply GM-Redi */
(PID.TID 0000.0001)                   F
(PID.TID 0000.0001)     ;
(PID.TID 0000.0001) PTRACERS_useDWNSLP = /* apply DOWN-SLOPE Flow */
(PID.TID 0000.0001)                   F
(PID.TID 0000.0001)     ;
(PID.TID 0000.0001) PTRACERS_useKPP = /* apply KPP scheme */
(PID.TID 0000.0001)                   T
(PID.TID 0000.0001)     ;
(PID.TID 0000.0001) PTRACERS_ref = /* Reference vertical profile */
(PID.TID 0000.0001)    35 @  0.000000000000000E+00              /* K =  1: 35 */
(PID.TID 0000.0001)     ;
(PID.TID 0000.0001) PTRACERS_EvPrRn =/* tracer conc. in Evap. & Rain */
(PID.TID 0000.0001)                 1.234567000000000E+05
(PID.TID 0000.0001)     ;
(PID.TID 0000.0001)  -----------------------------------
(PID.TID 0000.0001)  tracer number :    9
(PID.TID 0000.0001) PTRACERS_names = /* Tracer short name */
(PID.TID 0000.0001)               'BIO_1_004'
(PID.TID 0000.0001)     ;
(PID.TID 0000.0001) PTRACERS_long_names = /* Tracer long name */
(PID.TID 0000.0001)               ''
(PID.TID 0000.0001)     ;
(PID.TID 0000.0001) PTRACERS_ioLabel = /* tracer IO Label */
(PID.TID 0000.0001)               '09'
(PID.TID 0000.0001)     ;
(PID.TID 0000.0001) PTRACERS_advScheme = /* Advection Scheme */
(PID.TID 0000.0001)                      33
(PID.TID 0000.0001)     ;
(PID.TID 0000.0001) PTRACERS_SOM_Advection = /* tracer uses SOM advection scheme */
(PID.TID 0000.0001)                   F
(PID.TID 0000.0001)     ;
(PID.TID 0000.0001) PTRACERS_ImplVertAdv = /* implicit vert. advection flag */
(PID.TID 0000.0001)                   F
(PID.TID 0000.0001)     ;
(PID.TID 0000.0001) PTRACERS_diffKh = /* Laplacian Diffusivity */
(PID.TID 0000.0001)                 0.000000000000000E+00
(PID.TID 0000.0001)     ;
(PID.TID 0000.0001) PTRACERS_diffK4 = /* Biharmonic Diffusivity */
(PID.TID 0000.0001)                 0.000000000000000E+00
(PID.TID 0000.0001)     ;
(PID.TID 0000.0001) PTRACERS_diffKrNr = /* Vertical Diffusivity */
(PID.TID 0000.0001)    35 @  1.000000000000000E-05              /* K =  1: 35 */
(PID.TID 0000.0001)     ;
(PID.TID 0000.0001) PTRACERS_useGMRedi = /* apply GM-Redi */
(PID.TID 0000.0001)                   F
(PID.TID 0000.0001)     ;
(PID.TID 0000.0001) PTRACERS_useDWNSLP = /* apply DOWN-SLOPE Flow */
(PID.TID 0000.0001)                   F
(PID.TID 0000.0001)     ;
(PID.TID 0000.0001) PTRACERS_useKPP = /* apply KPP scheme */
(PID.TID 0000.0001)                   T
(PID.TID 0000.0001)     ;
(PID.TID 0000.0001) PTRACERS_ref = /* Reference vertical profile */
(PID.TID 0000.0001)    35 @  0.000000000000000E+00              /* K =  1: 35 */
(PID.TID 0000.0001)     ;
(PID.TID 0000.0001) PTRACERS_EvPrRn =/* tracer conc. in Evap. & Rain */
(PID.TID 0000.0001)                 1.234567000000000E+05
(PID.TID 0000.0001)     ;
(PID.TID 0000.0001)  -----------------------------------
(PID.TID 0000.0001)  tracer number :   10
(PID.TID 0000.0001) PTRACERS_names = /* Tracer short name */
(PID.TID 0000.0001)               'BIO_1_005'
(PID.TID 0000.0001)     ;
(PID.TID 0000.0001) PTRACERS_long_names = /* Tracer long name */
(PID.TID 0000.0001)               ''
(PID.TID 0000.0001)     ;
(PID.TID 0000.0001) PTRACERS_ioLabel = /* tracer IO Label */
(PID.TID 0000.0001)               '10'
(PID.TID 0000.0001)     ;
(PID.TID 0000.0001) PTRACERS_advScheme = /* Advection Scheme */
(PID.TID 0000.0001)                      33
(PID.TID 0000.0001)     ;
(PID.TID 0000.0001) PTRACERS_SOM_Advection = /* tracer uses SOM advection scheme */
(PID.TID 0000.0001)                   F
(PID.TID 0000.0001)     ;
(PID.TID 0000.0001) PTRACERS_ImplVertAdv = /* implicit vert. advection flag */
(PID.TID 0000.0001)                   F
(PID.TID 0000.0001)     ;
(PID.TID 0000.0001) PTRACERS_diffKh = /* Laplacian Diffusivity */
(PID.TID 0000.0001)                 0.000000000000000E+00
(PID.TID 0000.0001)     ;
(PID.TID 0000.0001) PTRACERS_diffK4 = /* Biharmonic Diffusivity */
(PID.TID 0000.0001)                 0.000000000000000E+00
(PID.TID 0000.0001)     ;
(PID.TID 0000.0001) PTRACERS_diffKrNr = /* Vertical Diffusivity */
(PID.TID 0000.0001)    35 @  1.000000000000000E-05              /* K =  1: 35 */
(PID.TID 0000.0001)     ;
(PID.TID 0000.0001) PTRACERS_useGMRedi = /* apply GM-Redi */
(PID.TID 0000.0001)                   F
(PID.TID 0000.0001)     ;
(PID.TID 0000.0001) PTRACERS_useDWNSLP = /* apply DOWN-SLOPE Flow */
(PID.TID 0000.0001)                   F
(PID.TID 0000.0001)     ;
(PID.TID 0000.0001) PTRACERS_useKPP = /* apply KPP scheme */
(PID.TID 0000.0001)                   T
(PID.TID 0000.0001)     ;
(PID.TID 0000.0001) PTRACERS_ref = /* Reference vertical profile */
(PID.TID 0000.0001)    35 @  0.000000000000000E+00              /* K =  1: 35 */
(PID.TID 0000.0001)     ;
(PID.TID 0000.0001) PTRACERS_EvPrRn =/* tracer conc. in Evap. & Rain */
(PID.TID 0000.0001)                 1.234567000000000E+05
(PID.TID 0000.0001)     ;
(PID.TID 0000.0001)  -----------------------------------
(PID.TID 0000.0001)  tracer number :   11
(PID.TID 0000.0001) PTRACERS_names = /* Tracer short name */
(PID.TID 0000.0001)               'BIO_1_006'
(PID.TID 0000.0001)     ;
(PID.TID 0000.0001) PTRACERS_long_names = /* Tracer long name */
(PID.TID 0000.0001)               ''
(PID.TID 0000.0001)     ;
(PID.TID 0000.0001) PTRACERS_ioLabel = /* tracer IO Label */
(PID.TID 0000.0001)               '11'
(PID.TID 0000.0001)     ;
(PID.TID 0000.0001) PTRACERS_advScheme = /* Advection Scheme */
(PID.TID 0000.0001)                      33
(PID.TID 0000.0001)     ;
(PID.TID 0000.0001) PTRACERS_SOM_Advection = /* tracer uses SOM advection scheme */
(PID.TID 0000.0001)                   F
(PID.TID 0000.0001)     ;
(PID.TID 0000.0001) PTRACERS_ImplVertAdv = /* implicit vert. advection flag */
(PID.TID 0000.0001)                   F
(PID.TID 0000.0001)     ;
(PID.TID 0000.0001) PTRACERS_diffKh = /* Laplacian Diffusivity */
(PID.TID 0000.0001)                 0.000000000000000E+00
(PID.TID 0000.0001)     ;
(PID.TID 0000.0001) PTRACERS_diffK4 = /* Biharmonic Diffusivity */
(PID.TID 0000.0001)                 0.000000000000000E+00
(PID.TID 0000.0001)     ;
(PID.TID 0000.0001) PTRACERS_diffKrNr = /* Vertical Diffusivity */
(PID.TID 0000.0001)    35 @  1.000000000000000E-05              /* K =  1: 35 */
(PID.TID 0000.0001)     ;
(PID.TID 0000.0001) PTRACERS_useGMRedi = /* apply GM-Redi */
(PID.TID 0000.0001)                   F
(PID.TID 0000.0001)     ;
(PID.TID 0000.0001) PTRACERS_useDWNSLP = /* apply DOWN-SLOPE Flow */
(PID.TID 0000.0001)                   F
(PID.TID 0000.0001)     ;
(PID.TID 0000.0001) PTRACERS_useKPP = /* apply KPP scheme */
(PID.TID 0000.0001)                   T
(PID.TID 0000.0001)     ;
(PID.TID 0000.0001) PTRACERS_ref = /* Reference vertical profile */
(PID.TID 0000.0001)    35 @  0.000000000000000E+00              /* K =  1: 35 */
(PID.TID 0000.0001)     ;
(PID.TID 0000.0001) PTRACERS_EvPrRn =/* tracer conc. in Evap. & Rain */
(PID.TID 0000.0001)                 1.234567000000000E+05
(PID.TID 0000.0001)     ;
(PID.TID 0000.0001)  -----------------------------------
(PID.TID 0000.0001)  tracer number :   12
(PID.TID 0000.0001) PTRACERS_names = /* Tracer short name */
(PID.TID 0000.0001)               'BIO_1_007'
(PID.TID 0000.0001)     ;
(PID.TID 0000.0001) PTRACERS_long_names = /* Tracer long name */
(PID.TID 0000.0001)               ''
(PID.TID 0000.0001)     ;
(PID.TID 0000.0001) PTRACERS_ioLabel = /* tracer IO Label */
(PID.TID 0000.0001)               '12'
(PID.TID 0000.0001)     ;
(PID.TID 0000.0001) PTRACERS_advScheme = /* Advection Scheme */
(PID.TID 0000.0001)                      33
(PID.TID 0000.0001)     ;
(PID.TID 0000.0001) PTRACERS_SOM_Advection = /* tracer uses SOM advection scheme */
(PID.TID 0000.0001)                   F
(PID.TID 0000.0001)     ;
(PID.TID 0000.0001) PTRACERS_ImplVertAdv = /* implicit vert. advection flag */
(PID.TID 0000.0001)                   F
(PID.TID 0000.0001)     ;
(PID.TID 0000.0001) PTRACERS_diffKh = /* Laplacian Diffusivity */
(PID.TID 0000.0001)                 0.000000000000000E+00
(PID.TID 0000.0001)     ;
(PID.TID 0000.0001) PTRACERS_diffK4 = /* Biharmonic Diffusivity */
(PID.TID 0000.0001)                 0.000000000000000E+00
(PID.TID 0000.0001)     ;
(PID.TID 0000.0001) PTRACERS_diffKrNr = /* Vertical Diffusivity */
(PID.TID 0000.0001)    35 @  1.000000000000000E-05              /* K =  1: 35 */
(PID.TID 0000.0001)     ;
(PID.TID 0000.0001) PTRACERS_useGMRedi = /* apply GM-Redi */
(PID.TID 0000.0001)                   F
(PID.TID 0000.0001)     ;
(PID.TID 0000.0001) PTRACERS_useDWNSLP = /* apply DOWN-SLOPE Flow */
(PID.TID 0000.0001)                   F
(PID.TID 0000.0001)     ;
(PID.TID 0000.0001) PTRACERS_useKPP = /* apply KPP scheme */
(PID.TID 0000.0001)                   T
(PID.TID 0000.0001)     ;
(PID.TID 0000.0001) PTRACERS_ref = /* Reference vertical profile */
(PID.TID 0000.0001)    35 @  0.000000000000000E+00              /* K =  1: 35 */
(PID.TID 0000.0001)     ;
(PID.TID 0000.0001) PTRACERS_EvPrRn =/* tracer conc. in Evap. & Rain */
(PID.TID 0000.0001)                 1.234567000000000E+05
(PID.TID 0000.0001)     ;
(PID.TID 0000.0001)  -----------------------------------
(PID.TID 0000.0001)  tracer number :   13
(PID.TID 0000.0001) PTRACERS_names = /* Tracer short name */
(PID.TID 0000.0001)               'BIO_1_008'
(PID.TID 0000.0001)     ;
(PID.TID 0000.0001) PTRACERS_long_names = /* Tracer long name */
(PID.TID 0000.0001)               ''
(PID.TID 0000.0001)     ;
(PID.TID 0000.0001) PTRACERS_ioLabel = /* tracer IO Label */
(PID.TID 0000.0001)               '13'
(PID.TID 0000.0001)     ;
(PID.TID 0000.0001) PTRACERS_advScheme = /* Advection Scheme */
(PID.TID 0000.0001)                      33
(PID.TID 0000.0001)     ;
(PID.TID 0000.0001) PTRACERS_SOM_Advection = /* tracer uses SOM advection scheme */
(PID.TID 0000.0001)                   F
(PID.TID 0000.0001)     ;
(PID.TID 0000.0001) PTRACERS_ImplVertAdv = /* implicit vert. advection flag */
(PID.TID 0000.0001)                   F
(PID.TID 0000.0001)     ;
(PID.TID 0000.0001) PTRACERS_diffKh = /* Laplacian Diffusivity */
(PID.TID 0000.0001)                 0.000000000000000E+00
(PID.TID 0000.0001)     ;
(PID.TID 0000.0001) PTRACERS_diffK4 = /* Biharmonic Diffusivity */
(PID.TID 0000.0001)                 0.000000000000000E+00
(PID.TID 0000.0001)     ;
(PID.TID 0000.0001) PTRACERS_diffKrNr = /* Vertical Diffusivity */
(PID.TID 0000.0001)    35 @  1.000000000000000E-05              /* K =  1: 35 */
(PID.TID 0000.0001)     ;
(PID.TID 0000.0001) PTRACERS_useGMRedi = /* apply GM-Redi */
(PID.TID 0000.0001)                   F
(PID.TID 0000.0001)     ;
(PID.TID 0000.0001) PTRACERS_useDWNSLP = /* apply DOWN-SLOPE Flow */
(PID.TID 0000.0001)                   F
(PID.TID 0000.0001)     ;
(PID.TID 0000.0001) PTRACERS_useKPP = /* apply KPP scheme */
(PID.TID 0000.0001)                   T
(PID.TID 0000.0001)     ;
(PID.TID 0000.0001) PTRACERS_ref = /* Reference vertical profile */
(PID.TID 0000.0001)    35 @  0.000000000000000E+00              /* K =  1: 35 */
(PID.TID 0000.0001)     ;
(PID.TID 0000.0001) PTRACERS_EvPrRn =/* tracer conc. in Evap. & Rain */
(PID.TID 0000.0001)                 1.234567000000000E+05
(PID.TID 0000.0001)     ;
(PID.TID 0000.0001)  -----------------------------------
(PID.TID 0000.0001)  tracer number :   14
(PID.TID 0000.0001) PTRACERS_names = /* Tracer short name */
(PID.TID 0000.0001)               'BIO_1_009'
(PID.TID 0000.0001)     ;
(PID.TID 0000.0001) PTRACERS_long_names = /* Tracer long name */
(PID.TID 0000.0001)               ''
(PID.TID 0000.0001)     ;
(PID.TID 0000.0001) PTRACERS_ioLabel = /* tracer IO Label */
(PID.TID 0000.0001)               '14'
(PID.TID 0000.0001)     ;
(PID.TID 0000.0001) PTRACERS_advScheme = /* Advection Scheme */
(PID.TID 0000.0001)                      33
(PID.TID 0000.0001)     ;
(PID.TID 0000.0001) PTRACERS_SOM_Advection = /* tracer uses SOM advection scheme */
(PID.TID 0000.0001)                   F
(PID.TID 0000.0001)     ;
(PID.TID 0000.0001) PTRACERS_ImplVertAdv = /* implicit vert. advection flag */
(PID.TID 0000.0001)                   F
(PID.TID 0000.0001)     ;
(PID.TID 0000.0001) PTRACERS_diffKh = /* Laplacian Diffusivity */
(PID.TID 0000.0001)                 0.000000000000000E+00
(PID.TID 0000.0001)     ;
(PID.TID 0000.0001) PTRACERS_diffK4 = /* Biharmonic Diffusivity */
(PID.TID 0000.0001)                 0.000000000000000E+00
(PID.TID 0000.0001)     ;
(PID.TID 0000.0001) PTRACERS_diffKrNr = /* Vertical Diffusivity */
(PID.TID 0000.0001)    35 @  1.000000000000000E-05              /* K =  1: 35 */
(PID.TID 0000.0001)     ;
(PID.TID 0000.0001) PTRACERS_useGMRedi = /* apply GM-Redi */
(PID.TID 0000.0001)                   F
(PID.TID 0000.0001)     ;
(PID.TID 0000.0001) PTRACERS_useDWNSLP = /* apply DOWN-SLOPE Flow */
(PID.TID 0000.0001)                   F
(PID.TID 0000.0001)     ;
(PID.TID 0000.0001) PTRACERS_useKPP = /* apply KPP scheme */
(PID.TID 0000.0001)                   T
(PID.TID 0000.0001)     ;
(PID.TID 0000.0001) PTRACERS_ref = /* Reference vertical profile */
(PID.TID 0000.0001)    35 @  0.000000000000000E+00              /* K =  1: 35 */
(PID.TID 0000.0001)     ;
(PID.TID 0000.0001) PTRACERS_EvPrRn =/* tracer conc. in Evap. & Rain */
(PID.TID 0000.0001)                 1.234567000000000E+05
(PID.TID 0000.0001)     ;
(PID.TID 0000.0001)  -----------------------------------
(PID.TID 0000.0001)  tracer number :   15
(PID.TID 0000.0001) PTRACERS_names = /* Tracer short name */
(PID.TID 0000.0001)               'BIO_1_010'
(PID.TID 0000.0001)     ;
(PID.TID 0000.0001) PTRACERS_long_names = /* Tracer long name */
(PID.TID 0000.0001)               ''
(PID.TID 0000.0001)     ;
(PID.TID 0000.0001) PTRACERS_ioLabel = /* tracer IO Label */
(PID.TID 0000.0001)               '15'
(PID.TID 0000.0001)     ;
(PID.TID 0000.0001) PTRACERS_advScheme = /* Advection Scheme */
(PID.TID 0000.0001)                      33
(PID.TID 0000.0001)     ;
(PID.TID 0000.0001) PTRACERS_SOM_Advection = /* tracer uses SOM advection scheme */
(PID.TID 0000.0001)                   F
(PID.TID 0000.0001)     ;
(PID.TID 0000.0001) PTRACERS_ImplVertAdv = /* implicit vert. advection flag */
(PID.TID 0000.0001)                   F
(PID.TID 0000.0001)     ;
(PID.TID 0000.0001) PTRACERS_diffKh = /* Laplacian Diffusivity */
(PID.TID 0000.0001)                 0.000000000000000E+00
(PID.TID 0000.0001)     ;
(PID.TID 0000.0001) PTRACERS_diffK4 = /* Biharmonic Diffusivity */
(PID.TID 0000.0001)                 0.000000000000000E+00
(PID.TID 0000.0001)     ;
(PID.TID 0000.0001) PTRACERS_diffKrNr = /* Vertical Diffusivity */
(PID.TID 0000.0001)    35 @  1.000000000000000E-05              /* K =  1: 35 */
(PID.TID 0000.0001)     ;
(PID.TID 0000.0001) PTRACERS_useGMRedi = /* apply GM-Redi */
(PID.TID 0000.0001)                   F
(PID.TID 0000.0001)     ;
(PID.TID 0000.0001) PTRACERS_useDWNSLP = /* apply DOWN-SLOPE Flow */
(PID.TID 0000.0001)                   F
(PID.TID 0000.0001)     ;
(PID.TID 0000.0001) PTRACERS_useKPP = /* apply KPP scheme */
(PID.TID 0000.0001)                   T
(PID.TID 0000.0001)     ;
(PID.TID 0000.0001) PTRACERS_ref = /* Reference vertical profile */
(PID.TID 0000.0001)    35 @  0.000000000000000E+00              /* K =  1: 35 */
(PID.TID 0000.0001)     ;
(PID.TID 0000.0001) PTRACERS_EvPrRn =/* tracer conc. in Evap. & Rain */
(PID.TID 0000.0001)                 1.234567000000000E+05
(PID.TID 0000.0001)     ;
(PID.TID 0000.0001)  -----------------------------------
(PID.TID 0000.0001)  tracer number :   16
(PID.TID 0000.0001) PTRACERS_names = /* Tracer short name */
(PID.TID 0000.0001)               'BIO_1_011'
(PID.TID 0000.0001)     ;
(PID.TID 0000.0001) PTRACERS_long_names = /* Tracer long name */
(PID.TID 0000.0001)               ''
(PID.TID 0000.0001)     ;
(PID.TID 0000.0001) PTRACERS_ioLabel = /* tracer IO Label */
(PID.TID 0000.0001)               '16'
(PID.TID 0000.0001)     ;
(PID.TID 0000.0001) PTRACERS_advScheme = /* Advection Scheme */
(PID.TID 0000.0001)                      33
(PID.TID 0000.0001)     ;
(PID.TID 0000.0001) PTRACERS_SOM_Advection = /* tracer uses SOM advection scheme */
(PID.TID 0000.0001)                   F
(PID.TID 0000.0001)     ;
(PID.TID 0000.0001) PTRACERS_ImplVertAdv = /* implicit vert. advection flag */
(PID.TID 0000.0001)                   F
(PID.TID 0000.0001)     ;
(PID.TID 0000.0001) PTRACERS_diffKh = /* Laplacian Diffusivity */
(PID.TID 0000.0001)                 0.000000000000000E+00
(PID.TID 0000.0001)     ;
(PID.TID 0000.0001) PTRACERS_diffK4 = /* Biharmonic Diffusivity */
(PID.TID 0000.0001)                 0.000000000000000E+00
(PID.TID 0000.0001)     ;
(PID.TID 0000.0001) PTRACERS_diffKrNr = /* Vertical Diffusivity */
(PID.TID 0000.0001)    35 @  1.000000000000000E-05              /* K =  1: 35 */
(PID.TID 0000.0001)     ;
(PID.TID 0000.0001) PTRACERS_useGMRedi = /* apply GM-Redi */
(PID.TID 0000.0001)                   F
(PID.TID 0000.0001)     ;
(PID.TID 0000.0001) PTRACERS_useDWNSLP = /* apply DOWN-SLOPE Flow */
(PID.TID 0000.0001)                   F
(PID.TID 0000.0001)     ;
(PID.TID 0000.0001) PTRACERS_useKPP = /* apply KPP scheme */
(PID.TID 0000.0001)                   T
(PID.TID 0000.0001)     ;
(PID.TID 0000.0001) PTRACERS_ref = /* Reference vertical profile */
(PID.TID 0000.0001)    35 @  0.000000000000000E+00              /* K =  1: 35 */
(PID.TID 0000.0001)     ;
(PID.TID 0000.0001) PTRACERS_EvPrRn =/* tracer conc. in Evap. & Rain */
(PID.TID 0000.0001)                 1.234567000000000E+05
(PID.TID 0000.0001)     ;
(PID.TID 0000.0001)  -----------------------------------
(PID.TID 0000.0001)  tracer number :   17
(PID.TID 0000.0001) PTRACERS_names = /* Tracer short name */
(PID.TID 0000.0001)               'BIO_1_012'
(PID.TID 0000.0001)     ;
(PID.TID 0000.0001) PTRACERS_long_names = /* Tracer long name */
(PID.TID 0000.0001)               ''
(PID.TID 0000.0001)     ;
(PID.TID 0000.0001) PTRACERS_ioLabel = /* tracer IO Label */
(PID.TID 0000.0001)               '17'
(PID.TID 0000.0001)     ;
(PID.TID 0000.0001) PTRACERS_advScheme = /* Advection Scheme */
(PID.TID 0000.0001)                      33
(PID.TID 0000.0001)     ;
(PID.TID 0000.0001) PTRACERS_SOM_Advection = /* tracer uses SOM advection scheme */
(PID.TID 0000.0001)                   F
(PID.TID 0000.0001)     ;
(PID.TID 0000.0001) PTRACERS_ImplVertAdv = /* implicit vert. advection flag */
(PID.TID 0000.0001)                   F
(PID.TID 0000.0001)     ;
(PID.TID 0000.0001) PTRACERS_diffKh = /* Laplacian Diffusivity */
(PID.TID 0000.0001)                 0.000000000000000E+00
(PID.TID 0000.0001)     ;
(PID.TID 0000.0001) PTRACERS_diffK4 = /* Biharmonic Diffusivity */
(PID.TID 0000.0001)                 0.000000000000000E+00
(PID.TID 0000.0001)     ;
(PID.TID 0000.0001) PTRACERS_diffKrNr = /* Vertical Diffusivity */
(PID.TID 0000.0001)    35 @  1.000000000000000E-05              /* K =  1: 35 */
(PID.TID 0000.0001)     ;
(PID.TID 0000.0001) PTRACERS_useGMRedi = /* apply GM-Redi */
(PID.TID 0000.0001)                   F
(PID.TID 0000.0001)     ;
(PID.TID 0000.0001) PTRACERS_useDWNSLP = /* apply DOWN-SLOPE Flow */
(PID.TID 0000.0001)                   F
(PID.TID 0000.0001)     ;
(PID.TID 0000.0001) PTRACERS_useKPP = /* apply KPP scheme */
(PID.TID 0000.0001)                   T
(PID.TID 0000.0001)     ;
(PID.TID 0000.0001) PTRACERS_ref = /* Reference vertical profile */
(PID.TID 0000.0001)    35 @  0.000000000000000E+00              /* K =  1: 35 */
(PID.TID 0000.0001)     ;
(PID.TID 0000.0001) PTRACERS_EvPrRn =/* tracer conc. in Evap. & Rain */
(PID.TID 0000.0001)                 1.234567000000000E+05
(PID.TID 0000.0001)     ;
(PID.TID 0000.0001)  -----------------------------------
(PID.TID 0000.0001)  tracer number :   18
(PID.TID 0000.0001) PTRACERS_names = /* Tracer short name */
(PID.TID 0000.0001)               'BIO_1_013'
(PID.TID 0000.0001)     ;
(PID.TID 0000.0001) PTRACERS_long_names = /* Tracer long name */
(PID.TID 0000.0001)               ''
(PID.TID 0000.0001)     ;
(PID.TID 0000.0001) PTRACERS_ioLabel = /* tracer IO Label */
(PID.TID 0000.0001)               '18'
(PID.TID 0000.0001)     ;
(PID.TID 0000.0001) PTRACERS_advScheme = /* Advection Scheme */
(PID.TID 0000.0001)                      33
(PID.TID 0000.0001)     ;
(PID.TID 0000.0001) PTRACERS_SOM_Advection = /* tracer uses SOM advection scheme */
(PID.TID 0000.0001)                   F
(PID.TID 0000.0001)     ;
(PID.TID 0000.0001) PTRACERS_ImplVertAdv = /* implicit vert. advection flag */
(PID.TID 0000.0001)                   F
(PID.TID 0000.0001)     ;
(PID.TID 0000.0001) PTRACERS_diffKh = /* Laplacian Diffusivity */
(PID.TID 0000.0001)                 0.000000000000000E+00
(PID.TID 0000.0001)     ;
(PID.TID 0000.0001) PTRACERS_diffK4 = /* Biharmonic Diffusivity */
(PID.TID 0000.0001)                 0.000000000000000E+00
(PID.TID 0000.0001)     ;
(PID.TID 0000.0001) PTRACERS_diffKrNr = /* Vertical Diffusivity */
(PID.TID 0000.0001)    35 @  1.000000000000000E-05              /* K =  1: 35 */
(PID.TID 0000.0001)     ;
(PID.TID 0000.0001) PTRACERS_useGMRedi = /* apply GM-Redi */
(PID.TID 0000.0001)                   F
(PID.TID 0000.0001)     ;
(PID.TID 0000.0001) PTRACERS_useDWNSLP = /* apply DOWN-SLOPE Flow */
(PID.TID 0000.0001)                   F
(PID.TID 0000.0001)     ;
(PID.TID 0000.0001) PTRACERS_useKPP = /* apply KPP scheme */
(PID.TID 0000.0001)                   T
(PID.TID 0000.0001)     ;
(PID.TID 0000.0001) PTRACERS_ref = /* Reference vertical profile */
(PID.TID 0000.0001)    35 @  0.000000000000000E+00              /* K =  1: 35 */
(PID.TID 0000.0001)     ;
(PID.TID 0000.0001) PTRACERS_EvPrRn =/* tracer conc. in Evap. & Rain */
(PID.TID 0000.0001)                 1.234567000000000E+05
(PID.TID 0000.0001)     ;
(PID.TID 0000.0001)  -----------------------------------
(PID.TID 0000.0001)  tracer number :   19
(PID.TID 0000.0001) PTRACERS_names = /* Tracer short name */
(PID.TID 0000.0001)               'BIO_1_014'
(PID.TID 0000.0001)     ;
(PID.TID 0000.0001) PTRACERS_long_names = /* Tracer long name */
(PID.TID 0000.0001)               ''
(PID.TID 0000.0001)     ;
(PID.TID 0000.0001) PTRACERS_ioLabel = /* tracer IO Label */
(PID.TID 0000.0001)               '19'
(PID.TID 0000.0001)     ;
(PID.TID 0000.0001) PTRACERS_advScheme = /* Advection Scheme */
(PID.TID 0000.0001)                      33
(PID.TID 0000.0001)     ;
(PID.TID 0000.0001) PTRACERS_SOM_Advection = /* tracer uses SOM advection scheme */
(PID.TID 0000.0001)                   F
(PID.TID 0000.0001)     ;
(PID.TID 0000.0001) PTRACERS_ImplVertAdv = /* implicit vert. advection flag */
(PID.TID 0000.0001)                   F
(PID.TID 0000.0001)     ;
(PID.TID 0000.0001) PTRACERS_diffKh = /* Laplacian Diffusivity */
(PID.TID 0000.0001)                 0.000000000000000E+00
(PID.TID 0000.0001)     ;
(PID.TID 0000.0001) PTRACERS_diffK4 = /* Biharmonic Diffusivity */
(PID.TID 0000.0001)                 0.000000000000000E+00
(PID.TID 0000.0001)     ;
(PID.TID 0000.0001) PTRACERS_diffKrNr = /* Vertical Diffusivity */
(PID.TID 0000.0001)    35 @  1.000000000000000E-05              /* K =  1: 35 */
(PID.TID 0000.0001)     ;
(PID.TID 0000.0001) PTRACERS_useGMRedi = /* apply GM-Redi */
(PID.TID 0000.0001)                   F
(PID.TID 0000.0001)     ;
(PID.TID 0000.0001) PTRACERS_useDWNSLP = /* apply DOWN-SLOPE Flow */
(PID.TID 0000.0001)                   F
(PID.TID 0000.0001)     ;
(PID.TID 0000.0001) PTRACERS_useKPP = /* apply KPP scheme */
(PID.TID 0000.0001)                   T
(PID.TID 0000.0001)     ;
(PID.TID 0000.0001) PTRACERS_ref = /* Reference vertical profile */
(PID.TID 0000.0001)    35 @  0.000000000000000E+00              /* K =  1: 35 */
(PID.TID 0000.0001)     ;
(PID.TID 0000.0001) PTRACERS_EvPrRn =/* tracer conc. in Evap. & Rain */
(PID.TID 0000.0001)                 1.234567000000000E+05
(PID.TID 0000.0001)     ;
(PID.TID 0000.0001)  -----------------------------------
(PID.TID 0000.0001)  tracer number :   20
(PID.TID 0000.0001) PTRACERS_names = /* Tracer short name */
(PID.TID 0000.0001)               'BIO_1_015'
(PID.TID 0000.0001)     ;
(PID.TID 0000.0001) PTRACERS_long_names = /* Tracer long name */
(PID.TID 0000.0001)               ''
(PID.TID 0000.0001)     ;
(PID.TID 0000.0001) PTRACERS_ioLabel = /* tracer IO Label */
(PID.TID 0000.0001)               '20'
(PID.TID 0000.0001)     ;
(PID.TID 0000.0001) PTRACERS_advScheme = /* Advection Scheme */
(PID.TID 0000.0001)                      33
(PID.TID 0000.0001)     ;
(PID.TID 0000.0001) PTRACERS_SOM_Advection = /* tracer uses SOM advection scheme */
(PID.TID 0000.0001)                   F
(PID.TID 0000.0001)     ;
(PID.TID 0000.0001) PTRACERS_ImplVertAdv = /* implicit vert. advection flag */
(PID.TID 0000.0001)                   F
(PID.TID 0000.0001)     ;
(PID.TID 0000.0001) PTRACERS_diffKh = /* Laplacian Diffusivity */
(PID.TID 0000.0001)                 0.000000000000000E+00
(PID.TID 0000.0001)     ;
(PID.TID 0000.0001) PTRACERS_diffK4 = /* Biharmonic Diffusivity */
(PID.TID 0000.0001)                 0.000000000000000E+00
(PID.TID 0000.0001)     ;
(PID.TID 0000.0001) PTRACERS_diffKrNr = /* Vertical Diffusivity */
(PID.TID 0000.0001)    35 @  1.000000000000000E-05              /* K =  1: 35 */
(PID.TID 0000.0001)     ;
(PID.TID 0000.0001) PTRACERS_useGMRedi = /* apply GM-Redi */
(PID.TID 0000.0001)                   F
(PID.TID 0000.0001)     ;
(PID.TID 0000.0001) PTRACERS_useDWNSLP = /* apply DOWN-SLOPE Flow */
(PID.TID 0000.0001)                   F
(PID.TID 0000.0001)     ;
(PID.TID 0000.0001) PTRACERS_useKPP = /* apply KPP scheme */
(PID.TID 0000.0001)                   T
(PID.TID 0000.0001)     ;
(PID.TID 0000.0001) PTRACERS_ref = /* Reference vertical profile */
(PID.TID 0000.0001)    35 @  0.000000000000000E+00              /* K =  1: 35 */
(PID.TID 0000.0001)     ;
(PID.TID 0000.0001) PTRACERS_EvPrRn =/* tracer conc. in Evap. & Rain */
(PID.TID 0000.0001)                 1.234567000000000E+05
(PID.TID 0000.0001)     ;
(PID.TID 0000.0001)  -----------------------------------
(PID.TID 0000.0001)  tracer number :   21
(PID.TID 0000.0001) PTRACERS_names = /* Tracer short name */
(PID.TID 0000.0001)               'BIO_1_016'
(PID.TID 0000.0001)     ;
(PID.TID 0000.0001) PTRACERS_long_names = /* Tracer long name */
(PID.TID 0000.0001)               ''
(PID.TID 0000.0001)     ;
(PID.TID 0000.0001) PTRACERS_ioLabel = /* tracer IO Label */
(PID.TID 0000.0001)               '21'
(PID.TID 0000.0001)     ;
(PID.TID 0000.0001) PTRACERS_advScheme = /* Advection Scheme */
(PID.TID 0000.0001)                      33
(PID.TID 0000.0001)     ;
(PID.TID 0000.0001) PTRACERS_SOM_Advection = /* tracer uses SOM advection scheme */
(PID.TID 0000.0001)                   F
(PID.TID 0000.0001)     ;
(PID.TID 0000.0001) PTRACERS_ImplVertAdv = /* implicit vert. advection flag */
(PID.TID 0000.0001)                   F
(PID.TID 0000.0001)     ;
(PID.TID 0000.0001) PTRACERS_diffKh = /* Laplacian Diffusivity */
(PID.TID 0000.0001)                 0.000000000000000E+00
(PID.TID 0000.0001)     ;
(PID.TID 0000.0001) PTRACERS_diffK4 = /* Biharmonic Diffusivity */
(PID.TID 0000.0001)                 0.000000000000000E+00
(PID.TID 0000.0001)     ;
(PID.TID 0000.0001) PTRACERS_diffKrNr = /* Vertical Diffusivity */
(PID.TID 0000.0001)    35 @  1.000000000000000E-05              /* K =  1: 35 */
(PID.TID 0000.0001)     ;
(PID.TID 0000.0001) PTRACERS_useGMRedi = /* apply GM-Redi */
(PID.TID 0000.0001)                   F
(PID.TID 0000.0001)     ;
(PID.TID 0000.0001) PTRACERS_useDWNSLP = /* apply DOWN-SLOPE Flow */
(PID.TID 0000.0001)                   F
(PID.TID 0000.0001)     ;
(PID.TID 0000.0001) PTRACERS_useKPP = /* apply KPP scheme */
(PID.TID 0000.0001)                   T
(PID.TID 0000.0001)     ;
(PID.TID 0000.0001) PTRACERS_ref = /* Reference vertical profile */
(PID.TID 0000.0001)    35 @  0.000000000000000E+00              /* K =  1: 35 */
(PID.TID 0000.0001)     ;
(PID.TID 0000.0001) PTRACERS_EvPrRn =/* tracer conc. in Evap. & Rain */
(PID.TID 0000.0001)                 1.234567000000000E+05
(PID.TID 0000.0001)     ;
(PID.TID 0000.0001)  -----------------------------------
(PID.TID 0000.0001)  tracer number :   22
(PID.TID 0000.0001) PTRACERS_names = /* Tracer short name */
(PID.TID 0000.0001)               'BIO_2_001'
(PID.TID 0000.0001)     ;
(PID.TID 0000.0001) PTRACERS_long_names = /* Tracer long name */
(PID.TID 0000.0001)               ''
(PID.TID 0000.0001)     ;
(PID.TID 0000.0001) PTRACERS_ioLabel = /* tracer IO Label */
(PID.TID 0000.0001)               '22'
(PID.TID 0000.0001)     ;
(PID.TID 0000.0001) PTRACERS_advScheme = /* Advection Scheme */
(PID.TID 0000.0001)                      33
(PID.TID 0000.0001)     ;
(PID.TID 0000.0001) PTRACERS_SOM_Advection = /* tracer uses SOM advection scheme */
(PID.TID 0000.0001)                   F
(PID.TID 0000.0001)     ;
(PID.TID 0000.0001) PTRACERS_ImplVertAdv = /* implicit vert. advection flag */
(PID.TID 0000.0001)                   F
(PID.TID 0000.0001)     ;
(PID.TID 0000.0001) PTRACERS_diffKh = /* Laplacian Diffusivity */
(PID.TID 0000.0001)                 0.000000000000000E+00
(PID.TID 0000.0001)     ;
(PID.TID 0000.0001) PTRACERS_diffK4 = /* Biharmonic Diffusivity */
(PID.TID 0000.0001)                 0.000000000000000E+00
(PID.TID 0000.0001)     ;
(PID.TID 0000.0001) PTRACERS_diffKrNr = /* Vertical Diffusivity */
(PID.TID 0000.0001)    35 @  1.000000000000000E-05              /* K =  1: 35 */
(PID.TID 0000.0001)     ;
(PID.TID 0000.0001) PTRACERS_useGMRedi = /* apply GM-Redi */
(PID.TID 0000.0001)                   F
(PID.TID 0000.0001)     ;
(PID.TID 0000.0001) PTRACERS_useDWNSLP = /* apply DOWN-SLOPE Flow */
(PID.TID 0000.0001)                   F
(PID.TID 0000.0001)     ;
(PID.TID 0000.0001) PTRACERS_useKPP = /* apply KPP scheme */
(PID.TID 0000.0001)                   T
(PID.TID 0000.0001)     ;
(PID.TID 0000.0001) PTRACERS_ref = /* Reference vertical profile */
(PID.TID 0000.0001)    35 @  0.000000000000000E+00              /* K =  1: 35 */
(PID.TID 0000.0001)     ;
(PID.TID 0000.0001) PTRACERS_EvPrRn =/* tracer conc. in Evap. & Rain */
(PID.TID 0000.0001)                 1.234567000000000E+05
(PID.TID 0000.0001)     ;
(PID.TID 0000.0001)  -----------------------------------
(PID.TID 0000.0001)  tracer number :   23
(PID.TID 0000.0001) PTRACERS_names = /* Tracer short name */
(PID.TID 0000.0001)               'BIO_2_002'
(PID.TID 0000.0001)     ;
(PID.TID 0000.0001) PTRACERS_long_names = /* Tracer long name */
(PID.TID 0000.0001)               ''
(PID.TID 0000.0001)     ;
(PID.TID 0000.0001) PTRACERS_ioLabel = /* tracer IO Label */
(PID.TID 0000.0001)               '23'
(PID.TID 0000.0001)     ;
(PID.TID 0000.0001) PTRACERS_advScheme = /* Advection Scheme */
(PID.TID 0000.0001)                      33
(PID.TID 0000.0001)     ;
(PID.TID 0000.0001) PTRACERS_SOM_Advection = /* tracer uses SOM advection scheme */
(PID.TID 0000.0001)                   F
(PID.TID 0000.0001)     ;
(PID.TID 0000.0001) PTRACERS_ImplVertAdv = /* implicit vert. advection flag */
(PID.TID 0000.0001)                   F
(PID.TID 0000.0001)     ;
(PID.TID 0000.0001) PTRACERS_diffKh = /* Laplacian Diffusivity */
(PID.TID 0000.0001)                 0.000000000000000E+00
(PID.TID 0000.0001)     ;
(PID.TID 0000.0001) PTRACERS_diffK4 = /* Biharmonic Diffusivity */
(PID.TID 0000.0001)                 0.000000000000000E+00
(PID.TID 0000.0001)     ;
(PID.TID 0000.0001) PTRACERS_diffKrNr = /* Vertical Diffusivity */
(PID.TID 0000.0001)    35 @  1.000000000000000E-05              /* K =  1: 35 */
(PID.TID 0000.0001)     ;
(PID.TID 0000.0001) PTRACERS_useGMRedi = /* apply GM-Redi */
(PID.TID 0000.0001)                   F
(PID.TID 0000.0001)     ;
(PID.TID 0000.0001) PTRACERS_useDWNSLP = /* apply DOWN-SLOPE Flow */
(PID.TID 0000.0001)                   F
(PID.TID 0000.0001)     ;
(PID.TID 0000.0001) PTRACERS_useKPP = /* apply KPP scheme */
(PID.TID 0000.0001)                   T
(PID.TID 0000.0001)     ;
(PID.TID 0000.0001) PTRACERS_ref = /* Reference vertical profile */
(PID.TID 0000.0001)    35 @  0.000000000000000E+00              /* K =  1: 35 */
(PID.TID 0000.0001)     ;
(PID.TID 0000.0001) PTRACERS_EvPrRn =/* tracer conc. in Evap. & Rain */
(PID.TID 0000.0001)                 1.234567000000000E+05
(PID.TID 0000.0001)     ;
(PID.TID 0000.0001)  -----------------------------------
(PID.TID 0000.0001)  tracer number :   24
(PID.TID 0000.0001) PTRACERS_names = /* Tracer short name */
(PID.TID 0000.0001)               'BIO_2_003'
(PID.TID 0000.0001)     ;
(PID.TID 0000.0001) PTRACERS_long_names = /* Tracer long name */
(PID.TID 0000.0001)               ''
(PID.TID 0000.0001)     ;
(PID.TID 0000.0001) PTRACERS_ioLabel = /* tracer IO Label */
(PID.TID 0000.0001)               '24'
(PID.TID 0000.0001)     ;
(PID.TID 0000.0001) PTRACERS_advScheme = /* Advection Scheme */
(PID.TID 0000.0001)                      33
(PID.TID 0000.0001)     ;
(PID.TID 0000.0001) PTRACERS_SOM_Advection = /* tracer uses SOM advection scheme */
(PID.TID 0000.0001)                   F
(PID.TID 0000.0001)     ;
(PID.TID 0000.0001) PTRACERS_ImplVertAdv = /* implicit vert. advection flag */
(PID.TID 0000.0001)                   F
(PID.TID 0000.0001)     ;
(PID.TID 0000.0001) PTRACERS_diffKh = /* Laplacian Diffusivity */
(PID.TID 0000.0001)                 0.000000000000000E+00
(PID.TID 0000.0001)     ;
(PID.TID 0000.0001) PTRACERS_diffK4 = /* Biharmonic Diffusivity */
(PID.TID 0000.0001)                 0.000000000000000E+00
(PID.TID 0000.0001)     ;
(PID.TID 0000.0001) PTRACERS_diffKrNr = /* Vertical Diffusivity */
(PID.TID 0000.0001)    35 @  1.000000000000000E-05              /* K =  1: 35 */
(PID.TID 0000.0001)     ;
(PID.TID 0000.0001) PTRACERS_useGMRedi = /* apply GM-Redi */
(PID.TID 0000.0001)                   F
(PID.TID 0000.0001)     ;
(PID.TID 0000.0001) PTRACERS_useDWNSLP = /* apply DOWN-SLOPE Flow */
(PID.TID 0000.0001)                   F
(PID.TID 0000.0001)     ;
(PID.TID 0000.0001) PTRACERS_useKPP = /* apply KPP scheme */
(PID.TID 0000.0001)                   T
(PID.TID 0000.0001)     ;
(PID.TID 0000.0001) PTRACERS_ref = /* Reference vertical profile */
(PID.TID 0000.0001)    35 @  0.000000000000000E+00              /* K =  1: 35 */
(PID.TID 0000.0001)     ;
(PID.TID 0000.0001) PTRACERS_EvPrRn =/* tracer conc. in Evap. & Rain */
(PID.TID 0000.0001)                 1.234567000000000E+05
(PID.TID 0000.0001)     ;
(PID.TID 0000.0001)  -----------------------------------
(PID.TID 0000.0001)  tracer number :   25
(PID.TID 0000.0001) PTRACERS_names = /* Tracer short name */
(PID.TID 0000.0001)               'BIO_2_004'
(PID.TID 0000.0001)     ;
(PID.TID 0000.0001) PTRACERS_long_names = /* Tracer long name */
(PID.TID 0000.0001)               ''
(PID.TID 0000.0001)     ;
(PID.TID 0000.0001) PTRACERS_ioLabel = /* tracer IO Label */
(PID.TID 0000.0001)               '25'
(PID.TID 0000.0001)     ;
(PID.TID 0000.0001) PTRACERS_advScheme = /* Advection Scheme */
(PID.TID 0000.0001)                      33
(PID.TID 0000.0001)     ;
(PID.TID 0000.0001) PTRACERS_SOM_Advection = /* tracer uses SOM advection scheme */
(PID.TID 0000.0001)                   F
(PID.TID 0000.0001)     ;
(PID.TID 0000.0001) PTRACERS_ImplVertAdv = /* implicit vert. advection flag */
(PID.TID 0000.0001)                   F
(PID.TID 0000.0001)     ;
(PID.TID 0000.0001) PTRACERS_diffKh = /* Laplacian Diffusivity */
(PID.TID 0000.0001)                 0.000000000000000E+00
(PID.TID 0000.0001)     ;
(PID.TID 0000.0001) PTRACERS_diffK4 = /* Biharmonic Diffusivity */
(PID.TID 0000.0001)                 0.000000000000000E+00
(PID.TID 0000.0001)     ;
(PID.TID 0000.0001) PTRACERS_diffKrNr = /* Vertical Diffusivity */
(PID.TID 0000.0001)    35 @  1.000000000000000E-05              /* K =  1: 35 */
(PID.TID 0000.0001)     ;
(PID.TID 0000.0001) PTRACERS_useGMRedi = /* apply GM-Redi */
(PID.TID 0000.0001)                   F
(PID.TID 0000.0001)     ;
(PID.TID 0000.0001) PTRACERS_useDWNSLP = /* apply DOWN-SLOPE Flow */
(PID.TID 0000.0001)                   F
(PID.TID 0000.0001)     ;
(PID.TID 0000.0001) PTRACERS_useKPP = /* apply KPP scheme */
(PID.TID 0000.0001)                   T
(PID.TID 0000.0001)     ;
(PID.TID 0000.0001) PTRACERS_ref = /* Reference vertical profile */
(PID.TID 0000.0001)    35 @  0.000000000000000E+00              /* K =  1: 35 */
(PID.TID 0000.0001)     ;
(PID.TID 0000.0001) PTRACERS_EvPrRn =/* tracer conc. in Evap. & Rain */
(PID.TID 0000.0001)                 1.234567000000000E+05
(PID.TID 0000.0001)     ;
(PID.TID 0000.0001)  -----------------------------------
(PID.TID 0000.0001)  tracer number :   26
(PID.TID 0000.0001) PTRACERS_names = /* Tracer short name */
(PID.TID 0000.0001)               'BIO_2_005'
(PID.TID 0000.0001)     ;
(PID.TID 0000.0001) PTRACERS_long_names = /* Tracer long name */
(PID.TID 0000.0001)               ''
(PID.TID 0000.0001)     ;
(PID.TID 0000.0001) PTRACERS_ioLabel = /* tracer IO Label */
(PID.TID 0000.0001)               '26'
(PID.TID 0000.0001)     ;
(PID.TID 0000.0001) PTRACERS_advScheme = /* Advection Scheme */
(PID.TID 0000.0001)                      33
(PID.TID 0000.0001)     ;
(PID.TID 0000.0001) PTRACERS_SOM_Advection = /* tracer uses SOM advection scheme */
(PID.TID 0000.0001)                   F
(PID.TID 0000.0001)     ;
(PID.TID 0000.0001) PTRACERS_ImplVertAdv = /* implicit vert. advection flag */
(PID.TID 0000.0001)                   F
(PID.TID 0000.0001)     ;
(PID.TID 0000.0001) PTRACERS_diffKh = /* Laplacian Diffusivity */
(PID.TID 0000.0001)                 0.000000000000000E+00
(PID.TID 0000.0001)     ;
(PID.TID 0000.0001) PTRACERS_diffK4 = /* Biharmonic Diffusivity */
(PID.TID 0000.0001)                 0.000000000000000E+00
(PID.TID 0000.0001)     ;
(PID.TID 0000.0001) PTRACERS_diffKrNr = /* Vertical Diffusivity */
(PID.TID 0000.0001)    35 @  1.000000000000000E-05              /* K =  1: 35 */
(PID.TID 0000.0001)     ;
(PID.TID 0000.0001) PTRACERS_useGMRedi = /* apply GM-Redi */
(PID.TID 0000.0001)                   F
(PID.TID 0000.0001)     ;
(PID.TID 0000.0001) PTRACERS_useDWNSLP = /* apply DOWN-SLOPE Flow */
(PID.TID 0000.0001)                   F
(PID.TID 0000.0001)     ;
(PID.TID 0000.0001) PTRACERS_useKPP = /* apply KPP scheme */
(PID.TID 0000.0001)                   T
(PID.TID 0000.0001)     ;
(PID.TID 0000.0001) PTRACERS_ref = /* Reference vertical profile */
(PID.TID 0000.0001)    35 @  0.000000000000000E+00              /* K =  1: 35 */
(PID.TID 0000.0001)     ;
(PID.TID 0000.0001) PTRACERS_EvPrRn =/* tracer conc. in Evap. & Rain */
(PID.TID 0000.0001)                 1.234567000000000E+05
(PID.TID 0000.0001)     ;
(PID.TID 0000.0001)  -----------------------------------
(PID.TID 0000.0001)  tracer number :   27
(PID.TID 0000.0001) PTRACERS_names = /* Tracer short name */
(PID.TID 0000.0001)               'BIO_2_006'
(PID.TID 0000.0001)     ;
(PID.TID 0000.0001) PTRACERS_long_names = /* Tracer long name */
(PID.TID 0000.0001)               ''
(PID.TID 0000.0001)     ;
(PID.TID 0000.0001) PTRACERS_ioLabel = /* tracer IO Label */
(PID.TID 0000.0001)               '27'
(PID.TID 0000.0001)     ;
(PID.TID 0000.0001) PTRACERS_advScheme = /* Advection Scheme */
(PID.TID 0000.0001)                      33
(PID.TID 0000.0001)     ;
(PID.TID 0000.0001) PTRACERS_SOM_Advection = /* tracer uses SOM advection scheme */
(PID.TID 0000.0001)                   F
(PID.TID 0000.0001)     ;
(PID.TID 0000.0001) PTRACERS_ImplVertAdv = /* implicit vert. advection flag */
(PID.TID 0000.0001)                   F
(PID.TID 0000.0001)     ;
(PID.TID 0000.0001) PTRACERS_diffKh = /* Laplacian Diffusivity */
(PID.TID 0000.0001)                 0.000000000000000E+00
(PID.TID 0000.0001)     ;
(PID.TID 0000.0001) PTRACERS_diffK4 = /* Biharmonic Diffusivity */
(PID.TID 0000.0001)                 0.000000000000000E+00
(PID.TID 0000.0001)     ;
(PID.TID 0000.0001) PTRACERS_diffKrNr = /* Vertical Diffusivity */
(PID.TID 0000.0001)    35 @  1.000000000000000E-05              /* K =  1: 35 */
(PID.TID 0000.0001)     ;
(PID.TID 0000.0001) PTRACERS_useGMRedi = /* apply GM-Redi */
(PID.TID 0000.0001)                   F
(PID.TID 0000.0001)     ;
(PID.TID 0000.0001) PTRACERS_useDWNSLP = /* apply DOWN-SLOPE Flow */
(PID.TID 0000.0001)                   F
(PID.TID 0000.0001)     ;
(PID.TID 0000.0001) PTRACERS_useKPP = /* apply KPP scheme */
(PID.TID 0000.0001)                   T
(PID.TID 0000.0001)     ;
(PID.TID 0000.0001) PTRACERS_ref = /* Reference vertical profile */
(PID.TID 0000.0001)    35 @  0.000000000000000E+00              /* K =  1: 35 */
(PID.TID 0000.0001)     ;
(PID.TID 0000.0001) PTRACERS_EvPrRn =/* tracer conc. in Evap. & Rain */
(PID.TID 0000.0001)                 1.234567000000000E+05
(PID.TID 0000.0001)     ;
(PID.TID 0000.0001)  -----------------------------------
(PID.TID 0000.0001)  tracer number :   28
(PID.TID 0000.0001) PTRACERS_names = /* Tracer short name */
(PID.TID 0000.0001)               'BIO_2_007'
(PID.TID 0000.0001)     ;
(PID.TID 0000.0001) PTRACERS_long_names = /* Tracer long name */
(PID.TID 0000.0001)               ''
(PID.TID 0000.0001)     ;
(PID.TID 0000.0001) PTRACERS_ioLabel = /* tracer IO Label */
(PID.TID 0000.0001)               '28'
(PID.TID 0000.0001)     ;
(PID.TID 0000.0001) PTRACERS_advScheme = /* Advection Scheme */
(PID.TID 0000.0001)                      33
(PID.TID 0000.0001)     ;
(PID.TID 0000.0001) PTRACERS_SOM_Advection = /* tracer uses SOM advection scheme */
(PID.TID 0000.0001)                   F
(PID.TID 0000.0001)     ;
(PID.TID 0000.0001) PTRACERS_ImplVertAdv = /* implicit vert. advection flag */
(PID.TID 0000.0001)                   F
(PID.TID 0000.0001)     ;
(PID.TID 0000.0001) PTRACERS_diffKh = /* Laplacian Diffusivity */
(PID.TID 0000.0001)                 0.000000000000000E+00
(PID.TID 0000.0001)     ;
(PID.TID 0000.0001) PTRACERS_diffK4 = /* Biharmonic Diffusivity */
(PID.TID 0000.0001)                 0.000000000000000E+00
(PID.TID 0000.0001)     ;
(PID.TID 0000.0001) PTRACERS_diffKrNr = /* Vertical Diffusivity */
(PID.TID 0000.0001)    35 @  1.000000000000000E-05              /* K =  1: 35 */
(PID.TID 0000.0001)     ;
(PID.TID 0000.0001) PTRACERS_useGMRedi = /* apply GM-Redi */
(PID.TID 0000.0001)                   F
(PID.TID 0000.0001)     ;
(PID.TID 0000.0001) PTRACERS_useDWNSLP = /* apply DOWN-SLOPE Flow */
(PID.TID 0000.0001)                   F
(PID.TID 0000.0001)     ;
(PID.TID 0000.0001) PTRACERS_useKPP = /* apply KPP scheme */
(PID.TID 0000.0001)                   T
(PID.TID 0000.0001)     ;
(PID.TID 0000.0001) PTRACERS_ref = /* Reference vertical profile */
(PID.TID 0000.0001)    35 @  0.000000000000000E+00              /* K =  1: 35 */
(PID.TID 0000.0001)     ;
(PID.TID 0000.0001) PTRACERS_EvPrRn =/* tracer conc. in Evap. & Rain */
(PID.TID 0000.0001)                 1.234567000000000E+05
(PID.TID 0000.0001)     ;
(PID.TID 0000.0001)  -----------------------------------
(PID.TID 0000.0001)  tracer number :   29
(PID.TID 0000.0001) PTRACERS_names = /* Tracer short name */
(PID.TID 0000.0001)               'BIO_2_008'
(PID.TID 0000.0001)     ;
(PID.TID 0000.0001) PTRACERS_long_names = /* Tracer long name */
(PID.TID 0000.0001)               ''
(PID.TID 0000.0001)     ;
(PID.TID 0000.0001) PTRACERS_ioLabel = /* tracer IO Label */
(PID.TID 0000.0001)               '29'
(PID.TID 0000.0001)     ;
(PID.TID 0000.0001) PTRACERS_advScheme = /* Advection Scheme */
(PID.TID 0000.0001)                      33
(PID.TID 0000.0001)     ;
(PID.TID 0000.0001) PTRACERS_SOM_Advection = /* tracer uses SOM advection scheme */
(PID.TID 0000.0001)                   F
(PID.TID 0000.0001)     ;
(PID.TID 0000.0001) PTRACERS_ImplVertAdv = /* implicit vert. advection flag */
(PID.TID 0000.0001)                   F
(PID.TID 0000.0001)     ;
(PID.TID 0000.0001) PTRACERS_diffKh = /* Laplacian Diffusivity */
(PID.TID 0000.0001)                 0.000000000000000E+00
(PID.TID 0000.0001)     ;
(PID.TID 0000.0001) PTRACERS_diffK4 = /* Biharmonic Diffusivity */
(PID.TID 0000.0001)                 0.000000000000000E+00
(PID.TID 0000.0001)     ;
(PID.TID 0000.0001) PTRACERS_diffKrNr = /* Vertical Diffusivity */
(PID.TID 0000.0001)    35 @  1.000000000000000E-05              /* K =  1: 35 */
(PID.TID 0000.0001)     ;
(PID.TID 0000.0001) PTRACERS_useGMRedi = /* apply GM-Redi */
(PID.TID 0000.0001)                   F
(PID.TID 0000.0001)     ;
(PID.TID 0000.0001) PTRACERS_useDWNSLP = /* apply DOWN-SLOPE Flow */
(PID.TID 0000.0001)                   F
(PID.TID 0000.0001)     ;
(PID.TID 0000.0001) PTRACERS_useKPP = /* apply KPP scheme */
(PID.TID 0000.0001)                   T
(PID.TID 0000.0001)     ;
(PID.TID 0000.0001) PTRACERS_ref = /* Reference vertical profile */
(PID.TID 0000.0001)    35 @  0.000000000000000E+00              /* K =  1: 35 */
(PID.TID 0000.0001)     ;
(PID.TID 0000.0001) PTRACERS_EvPrRn =/* tracer conc. in Evap. & Rain */
(PID.TID 0000.0001)                 1.234567000000000E+05
(PID.TID 0000.0001)     ;
(PID.TID 0000.0001)  -----------------------------------
(PID.TID 0000.0001)  tracer number :   30
(PID.TID 0000.0001) PTRACERS_names = /* Tracer short name */
(PID.TID 0000.0001)               'BIO_2_009'
(PID.TID 0000.0001)     ;
(PID.TID 0000.0001) PTRACERS_long_names = /* Tracer long name */
(PID.TID 0000.0001)               ''
(PID.TID 0000.0001)     ;
(PID.TID 0000.0001) PTRACERS_ioLabel = /* tracer IO Label */
(PID.TID 0000.0001)               '30'
(PID.TID 0000.0001)     ;
(PID.TID 0000.0001) PTRACERS_advScheme = /* Advection Scheme */
(PID.TID 0000.0001)                      33
(PID.TID 0000.0001)     ;
(PID.TID 0000.0001) PTRACERS_SOM_Advection = /* tracer uses SOM advection scheme */
(PID.TID 0000.0001)                   F
(PID.TID 0000.0001)     ;
(PID.TID 0000.0001) PTRACERS_ImplVertAdv = /* implicit vert. advection flag */
(PID.TID 0000.0001)                   F
(PID.TID 0000.0001)     ;
(PID.TID 0000.0001) PTRACERS_diffKh = /* Laplacian Diffusivity */
(PID.TID 0000.0001)                 0.000000000000000E+00
(PID.TID 0000.0001)     ;
(PID.TID 0000.0001) PTRACERS_diffK4 = /* Biharmonic Diffusivity */
(PID.TID 0000.0001)                 0.000000000000000E+00
(PID.TID 0000.0001)     ;
(PID.TID 0000.0001) PTRACERS_diffKrNr = /* Vertical Diffusivity */
(PID.TID 0000.0001)    35 @  1.000000000000000E-05              /* K =  1: 35 */
(PID.TID 0000.0001)     ;
(PID.TID 0000.0001) PTRACERS_useGMRedi = /* apply GM-Redi */
(PID.TID 0000.0001)                   F
(PID.TID 0000.0001)     ;
(PID.TID 0000.0001) PTRACERS_useDWNSLP = /* apply DOWN-SLOPE Flow */
(PID.TID 0000.0001)                   F
(PID.TID 0000.0001)     ;
(PID.TID 0000.0001) PTRACERS_useKPP = /* apply KPP scheme */
(PID.TID 0000.0001)                   T
(PID.TID 0000.0001)     ;
(PID.TID 0000.0001) PTRACERS_ref = /* Reference vertical profile */
(PID.TID 0000.0001)    35 @  0.000000000000000E+00              /* K =  1: 35 */
(PID.TID 0000.0001)     ;
(PID.TID 0000.0001) PTRACERS_EvPrRn =/* tracer conc. in Evap. & Rain */
(PID.TID 0000.0001)                 1.234567000000000E+05
(PID.TID 0000.0001)     ;
(PID.TID 0000.0001)  -----------------------------------
(PID.TID 0000.0001)  tracer number :   31
(PID.TID 0000.0001) PTRACERS_names = /* Tracer short name */
(PID.TID 0000.0001)               'BIO_2_010'
(PID.TID 0000.0001)     ;
(PID.TID 0000.0001) PTRACERS_long_names = /* Tracer long name */
(PID.TID 0000.0001)               ''
(PID.TID 0000.0001)     ;
(PID.TID 0000.0001) PTRACERS_ioLabel = /* tracer IO Label */
(PID.TID 0000.0001)               '31'
(PID.TID 0000.0001)     ;
(PID.TID 0000.0001) PTRACERS_advScheme = /* Advection Scheme */
(PID.TID 0000.0001)                      33
(PID.TID 0000.0001)     ;
(PID.TID 0000.0001) PTRACERS_SOM_Advection = /* tracer uses SOM advection scheme */
(PID.TID 0000.0001)                   F
(PID.TID 0000.0001)     ;
(PID.TID 0000.0001) PTRACERS_ImplVertAdv = /* implicit vert. advection flag */
(PID.TID 0000.0001)                   F
(PID.TID 0000.0001)     ;
(PID.TID 0000.0001) PTRACERS_diffKh = /* Laplacian Diffusivity */
(PID.TID 0000.0001)                 0.000000000000000E+00
(PID.TID 0000.0001)     ;
(PID.TID 0000.0001) PTRACERS_diffK4 = /* Biharmonic Diffusivity */
(PID.TID 0000.0001)                 0.000000000000000E+00
(PID.TID 0000.0001)     ;
(PID.TID 0000.0001) PTRACERS_diffKrNr = /* Vertical Diffusivity */
(PID.TID 0000.0001)    35 @  1.000000000000000E-05              /* K =  1: 35 */
(PID.TID 0000.0001)     ;
(PID.TID 0000.0001) PTRACERS_useGMRedi = /* apply GM-Redi */
(PID.TID 0000.0001)                   F
(PID.TID 0000.0001)     ;
(PID.TID 0000.0001) PTRACERS_useDWNSLP = /* apply DOWN-SLOPE Flow */
(PID.TID 0000.0001)                   F
(PID.TID 0000.0001)     ;
(PID.TID 0000.0001) PTRACERS_useKPP = /* apply KPP scheme */
(PID.TID 0000.0001)                   T
(PID.TID 0000.0001)     ;
(PID.TID 0000.0001) PTRACERS_ref = /* Reference vertical profile */
(PID.TID 0000.0001)    35 @  0.000000000000000E+00              /* K =  1: 35 */
(PID.TID 0000.0001)     ;
(PID.TID 0000.0001) PTRACERS_EvPrRn =/* tracer conc. in Evap. & Rain */
(PID.TID 0000.0001)                 1.234567000000000E+05
(PID.TID 0000.0001)     ;
(PID.TID 0000.0001)  -----------------------------------
(PID.TID 0000.0001)  tracer number :   32
(PID.TID 0000.0001) PTRACERS_names = /* Tracer short name */
(PID.TID 0000.0001)               'BIO_2_011'
(PID.TID 0000.0001)     ;
(PID.TID 0000.0001) PTRACERS_long_names = /* Tracer long name */
(PID.TID 0000.0001)               ''
(PID.TID 0000.0001)     ;
(PID.TID 0000.0001) PTRACERS_ioLabel = /* tracer IO Label */
(PID.TID 0000.0001)               '32'
(PID.TID 0000.0001)     ;
(PID.TID 0000.0001) PTRACERS_advScheme = /* Advection Scheme */
(PID.TID 0000.0001)                      33
(PID.TID 0000.0001)     ;
(PID.TID 0000.0001) PTRACERS_SOM_Advection = /* tracer uses SOM advection scheme */
(PID.TID 0000.0001)                   F
(PID.TID 0000.0001)     ;
(PID.TID 0000.0001) PTRACERS_ImplVertAdv = /* implicit vert. advection flag */
(PID.TID 0000.0001)                   F
(PID.TID 0000.0001)     ;
(PID.TID 0000.0001) PTRACERS_diffKh = /* Laplacian Diffusivity */
(PID.TID 0000.0001)                 0.000000000000000E+00
(PID.TID 0000.0001)     ;
(PID.TID 0000.0001) PTRACERS_diffK4 = /* Biharmonic Diffusivity */
(PID.TID 0000.0001)                 0.000000000000000E+00
(PID.TID 0000.0001)     ;
(PID.TID 0000.0001) PTRACERS_diffKrNr = /* Vertical Diffusivity */
(PID.TID 0000.0001)    35 @  1.000000000000000E-05              /* K =  1: 35 */
(PID.TID 0000.0001)     ;
(PID.TID 0000.0001) PTRACERS_useGMRedi = /* apply GM-Redi */
(PID.TID 0000.0001)                   F
(PID.TID 0000.0001)     ;
(PID.TID 0000.0001) PTRACERS_useDWNSLP = /* apply DOWN-SLOPE Flow */
(PID.TID 0000.0001)                   F
(PID.TID 0000.0001)     ;
(PID.TID 0000.0001) PTRACERS_useKPP = /* apply KPP scheme */
(PID.TID 0000.0001)                   T
(PID.TID 0000.0001)     ;
(PID.TID 0000.0001) PTRACERS_ref = /* Reference vertical profile */
(PID.TID 0000.0001)    35 @  0.000000000000000E+00              /* K =  1: 35 */
(PID.TID 0000.0001)     ;
(PID.TID 0000.0001) PTRACERS_EvPrRn =/* tracer conc. in Evap. & Rain */
(PID.TID 0000.0001)                 1.234567000000000E+05
(PID.TID 0000.0001)     ;
(PID.TID 0000.0001)  -----------------------------------
(PID.TID 0000.0001)  tracer number :   33
(PID.TID 0000.0001) PTRACERS_names = /* Tracer short name */
(PID.TID 0000.0001)               'BIO_2_012'
(PID.TID 0000.0001)     ;
(PID.TID 0000.0001) PTRACERS_long_names = /* Tracer long name */
(PID.TID 0000.0001)               ''
(PID.TID 0000.0001)     ;
(PID.TID 0000.0001) PTRACERS_ioLabel = /* tracer IO Label */
(PID.TID 0000.0001)               '33'
(PID.TID 0000.0001)     ;
(PID.TID 0000.0001) PTRACERS_advScheme = /* Advection Scheme */
(PID.TID 0000.0001)                      33
(PID.TID 0000.0001)     ;
(PID.TID 0000.0001) PTRACERS_SOM_Advection = /* tracer uses SOM advection scheme */
(PID.TID 0000.0001)                   F
(PID.TID 0000.0001)     ;
(PID.TID 0000.0001) PTRACERS_ImplVertAdv = /* implicit vert. advection flag */
(PID.TID 0000.0001)                   F
(PID.TID 0000.0001)     ;
(PID.TID 0000.0001) PTRACERS_diffKh = /* Laplacian Diffusivity */
(PID.TID 0000.0001)                 0.000000000000000E+00
(PID.TID 0000.0001)     ;
(PID.TID 0000.0001) PTRACERS_diffK4 = /* Biharmonic Diffusivity */
(PID.TID 0000.0001)                 0.000000000000000E+00
(PID.TID 0000.0001)     ;
(PID.TID 0000.0001) PTRACERS_diffKrNr = /* Vertical Diffusivity */
(PID.TID 0000.0001)    35 @  1.000000000000000E-05              /* K =  1: 35 */
(PID.TID 0000.0001)     ;
(PID.TID 0000.0001) PTRACERS_useGMRedi = /* apply GM-Redi */
(PID.TID 0000.0001)                   F
(PID.TID 0000.0001)     ;
(PID.TID 0000.0001) PTRACERS_useDWNSLP = /* apply DOWN-SLOPE Flow */
(PID.TID 0000.0001)                   F
(PID.TID 0000.0001)     ;
(PID.TID 0000.0001) PTRACERS_useKPP = /* apply KPP scheme */
(PID.TID 0000.0001)                   T
(PID.TID 0000.0001)     ;
(PID.TID 0000.0001) PTRACERS_ref = /* Reference vertical profile */
(PID.TID 0000.0001)    35 @  0.000000000000000E+00              /* K =  1: 35 */
(PID.TID 0000.0001)     ;
(PID.TID 0000.0001) PTRACERS_EvPrRn =/* tracer conc. in Evap. & Rain */
(PID.TID 0000.0001)                 1.234567000000000E+05
(PID.TID 0000.0001)     ;
(PID.TID 0000.0001)  -----------------------------------
(PID.TID 0000.0001)  tracer number :   34
(PID.TID 0000.0001) PTRACERS_names = /* Tracer short name */
(PID.TID 0000.0001)               'BIO_2_013'
(PID.TID 0000.0001)     ;
(PID.TID 0000.0001) PTRACERS_long_names = /* Tracer long name */
(PID.TID 0000.0001)               ''
(PID.TID 0000.0001)     ;
(PID.TID 0000.0001) PTRACERS_ioLabel = /* tracer IO Label */
(PID.TID 0000.0001)               '34'
(PID.TID 0000.0001)     ;
(PID.TID 0000.0001) PTRACERS_advScheme = /* Advection Scheme */
(PID.TID 0000.0001)                      33
(PID.TID 0000.0001)     ;
(PID.TID 0000.0001) PTRACERS_SOM_Advection = /* tracer uses SOM advection scheme */
(PID.TID 0000.0001)                   F
(PID.TID 0000.0001)     ;
(PID.TID 0000.0001) PTRACERS_ImplVertAdv = /* implicit vert. advection flag */
(PID.TID 0000.0001)                   F
(PID.TID 0000.0001)     ;
(PID.TID 0000.0001) PTRACERS_diffKh = /* Laplacian Diffusivity */
(PID.TID 0000.0001)                 0.000000000000000E+00
(PID.TID 0000.0001)     ;
(PID.TID 0000.0001) PTRACERS_diffK4 = /* Biharmonic Diffusivity */
(PID.TID 0000.0001)                 0.000000000000000E+00
(PID.TID 0000.0001)     ;
(PID.TID 0000.0001) PTRACERS_diffKrNr = /* Vertical Diffusivity */
(PID.TID 0000.0001)    35 @  1.000000000000000E-05              /* K =  1: 35 */
(PID.TID 0000.0001)     ;
(PID.TID 0000.0001) PTRACERS_useGMRedi = /* apply GM-Redi */
(PID.TID 0000.0001)                   F
(PID.TID 0000.0001)     ;
(PID.TID 0000.0001) PTRACERS_useDWNSLP = /* apply DOWN-SLOPE Flow */
(PID.TID 0000.0001)                   F
(PID.TID 0000.0001)     ;
(PID.TID 0000.0001) PTRACERS_useKPP = /* apply KPP scheme */
(PID.TID 0000.0001)                   T
(PID.TID 0000.0001)     ;
(PID.TID 0000.0001) PTRACERS_ref = /* Reference vertical profile */
(PID.TID 0000.0001)    35 @  0.000000000000000E+00              /* K =  1: 35 */
(PID.TID 0000.0001)     ;
(PID.TID 0000.0001) PTRACERS_EvPrRn =/* tracer conc. in Evap. & Rain */
(PID.TID 0000.0001)                 1.234567000000000E+05
(PID.TID 0000.0001)     ;
(PID.TID 0000.0001)  -----------------------------------
(PID.TID 0000.0001)  tracer number :   35
(PID.TID 0000.0001) PTRACERS_names = /* Tracer short name */
(PID.TID 0000.0001)               'BIO_2_014'
(PID.TID 0000.0001)     ;
(PID.TID 0000.0001) PTRACERS_long_names = /* Tracer long name */
(PID.TID 0000.0001)               ''
(PID.TID 0000.0001)     ;
(PID.TID 0000.0001) PTRACERS_ioLabel = /* tracer IO Label */
(PID.TID 0000.0001)               '35'
(PID.TID 0000.0001)     ;
(PID.TID 0000.0001) PTRACERS_advScheme = /* Advection Scheme */
(PID.TID 0000.0001)                      33
(PID.TID 0000.0001)     ;
(PID.TID 0000.0001) PTRACERS_SOM_Advection = /* tracer uses SOM advection scheme */
(PID.TID 0000.0001)                   F
(PID.TID 0000.0001)     ;
(PID.TID 0000.0001) PTRACERS_ImplVertAdv = /* implicit vert. advection flag */
(PID.TID 0000.0001)                   F
(PID.TID 0000.0001)     ;
(PID.TID 0000.0001) PTRACERS_diffKh = /* Laplacian Diffusivity */
(PID.TID 0000.0001)                 0.000000000000000E+00
(PID.TID 0000.0001)     ;
(PID.TID 0000.0001) PTRACERS_diffK4 = /* Biharmonic Diffusivity */
(PID.TID 0000.0001)                 0.000000000000000E+00
(PID.TID 0000.0001)     ;
(PID.TID 0000.0001) PTRACERS_diffKrNr = /* Vertical Diffusivity */
(PID.TID 0000.0001)    35 @  1.000000000000000E-05              /* K =  1: 35 */
(PID.TID 0000.0001)     ;
(PID.TID 0000.0001) PTRACERS_useGMRedi = /* apply GM-Redi */
(PID.TID 0000.0001)                   F
(PID.TID 0000.0001)     ;
(PID.TID 0000.0001) PTRACERS_useDWNSLP = /* apply DOWN-SLOPE Flow */
(PID.TID 0000.0001)                   F
(PID.TID 0000.0001)     ;
(PID.TID 0000.0001) PTRACERS_useKPP = /* apply KPP scheme */
(PID.TID 0000.0001)                   T
(PID.TID 0000.0001)     ;
(PID.TID 0000.0001) PTRACERS_ref = /* Reference vertical profile */
(PID.TID 0000.0001)    35 @  0.000000000000000E+00              /* K =  1: 35 */
(PID.TID 0000.0001)     ;
(PID.TID 0000.0001) PTRACERS_EvPrRn =/* tracer conc. in Evap. & Rain */
(PID.TID 0000.0001)                 1.234567000000000E+05
(PID.TID 0000.0001)     ;
(PID.TID 0000.0001)  -----------------------------------
(PID.TID 0000.0001)  tracer number :   36
(PID.TID 0000.0001) PTRACERS_names = /* Tracer short name */
(PID.TID 0000.0001)               'BIO_2_015'
(PID.TID 0000.0001)     ;
(PID.TID 0000.0001) PTRACERS_long_names = /* Tracer long name */
(PID.TID 0000.0001)               ''
(PID.TID 0000.0001)     ;
(PID.TID 0000.0001) PTRACERS_ioLabel = /* tracer IO Label */
(PID.TID 0000.0001)               '36'
(PID.TID 0000.0001)     ;
(PID.TID 0000.0001) PTRACERS_advScheme = /* Advection Scheme */
(PID.TID 0000.0001)                      33
(PID.TID 0000.0001)     ;
(PID.TID 0000.0001) PTRACERS_SOM_Advection = /* tracer uses SOM advection scheme */
(PID.TID 0000.0001)                   F
(PID.TID 0000.0001)     ;
(PID.TID 0000.0001) PTRACERS_ImplVertAdv = /* implicit vert. advection flag */
(PID.TID 0000.0001)                   F
(PID.TID 0000.0001)     ;
(PID.TID 0000.0001) PTRACERS_diffKh = /* Laplacian Diffusivity */
(PID.TID 0000.0001)                 0.000000000000000E+00
(PID.TID 0000.0001)     ;
(PID.TID 0000.0001) PTRACERS_diffK4 = /* Biharmonic Diffusivity */
(PID.TID 0000.0001)                 0.000000000000000E+00
(PID.TID 0000.0001)     ;
(PID.TID 0000.0001) PTRACERS_diffKrNr = /* Vertical Diffusivity */
(PID.TID 0000.0001)    35 @  1.000000000000000E-05              /* K =  1: 35 */
(PID.TID 0000.0001)     ;
(PID.TID 0000.0001) PTRACERS_useGMRedi = /* apply GM-Redi */
(PID.TID 0000.0001)                   F
(PID.TID 0000.0001)     ;
(PID.TID 0000.0001) PTRACERS_useDWNSLP = /* apply DOWN-SLOPE Flow */
(PID.TID 0000.0001)                   F
(PID.TID 0000.0001)     ;
(PID.TID 0000.0001) PTRACERS_useKPP = /* apply KPP scheme */
(PID.TID 0000.0001)                   T
(PID.TID 0000.0001)     ;
(PID.TID 0000.0001) PTRACERS_ref = /* Reference vertical profile */
(PID.TID 0000.0001)    35 @  0.000000000000000E+00              /* K =  1: 35 */
(PID.TID 0000.0001)     ;
(PID.TID 0000.0001) PTRACERS_EvPrRn =/* tracer conc. in Evap. & Rain */
(PID.TID 0000.0001)                 1.234567000000000E+05
(PID.TID 0000.0001)     ;
(PID.TID 0000.0001)  -----------------------------------
(PID.TID 0000.0001)  tracer number :   37
(PID.TID 0000.0001) PTRACERS_names = /* Tracer short name */
(PID.TID 0000.0001)               'BIO_2_016'
(PID.TID 0000.0001)     ;
(PID.TID 0000.0001) PTRACERS_long_names = /* Tracer long name */
(PID.TID 0000.0001)               ''
(PID.TID 0000.0001)     ;
(PID.TID 0000.0001) PTRACERS_ioLabel = /* tracer IO Label */
(PID.TID 0000.0001)               '37'
(PID.TID 0000.0001)     ;
(PID.TID 0000.0001) PTRACERS_advScheme = /* Advection Scheme */
(PID.TID 0000.0001)                      33
(PID.TID 0000.0001)     ;
(PID.TID 0000.0001) PTRACERS_SOM_Advection = /* tracer uses SOM advection scheme */
(PID.TID 0000.0001)                   F
(PID.TID 0000.0001)     ;
(PID.TID 0000.0001) PTRACERS_ImplVertAdv = /* implicit vert. advection flag */
(PID.TID 0000.0001)                   F
(PID.TID 0000.0001)     ;
(PID.TID 0000.0001) PTRACERS_diffKh = /* Laplacian Diffusivity */
(PID.TID 0000.0001)                 0.000000000000000E+00
(PID.TID 0000.0001)     ;
(PID.TID 0000.0001) PTRACERS_diffK4 = /* Biharmonic Diffusivity */
(PID.TID 0000.0001)                 0.000000000000000E+00
(PID.TID 0000.0001)     ;
(PID.TID 0000.0001) PTRACERS_diffKrNr = /* Vertical Diffusivity */
(PID.TID 0000.0001)    35 @  1.000000000000000E-05              /* K =  1: 35 */
(PID.TID 0000.0001)     ;
(PID.TID 0000.0001) PTRACERS_useGMRedi = /* apply GM-Redi */
(PID.TID 0000.0001)                   F
(PID.TID 0000.0001)     ;
(PID.TID 0000.0001) PTRACERS_useDWNSLP = /* apply DOWN-SLOPE Flow */
(PID.TID 0000.0001)                   F
(PID.TID 0000.0001)     ;
(PID.TID 0000.0001) PTRACERS_useKPP = /* apply KPP scheme */
(PID.TID 0000.0001)                   T
(PID.TID 0000.0001)     ;
(PID.TID 0000.0001) PTRACERS_ref = /* Reference vertical profile */
(PID.TID 0000.0001)    35 @  0.000000000000000E+00              /* K =  1: 35 */
(PID.TID 0000.0001)     ;
(PID.TID 0000.0001) PTRACERS_EvPrRn =/* tracer conc. in Evap. & Rain */
(PID.TID 0000.0001)                 1.234567000000000E+05
(PID.TID 0000.0001)     ;
(PID.TID 0000.0001)  -----------------------------------
(PID.TID 0000.0001)  tracer number :   38
(PID.TID 0000.0001) PTRACERS_names = /* Tracer short name */
(PID.TID 0000.0001)               'BIO_3_001'
(PID.TID 0000.0001)     ;
(PID.TID 0000.0001) PTRACERS_long_names = /* Tracer long name */
(PID.TID 0000.0001)               ''
(PID.TID 0000.0001)     ;
(PID.TID 0000.0001) PTRACERS_ioLabel = /* tracer IO Label */
(PID.TID 0000.0001)               '38'
(PID.TID 0000.0001)     ;
(PID.TID 0000.0001) PTRACERS_advScheme = /* Advection Scheme */
(PID.TID 0000.0001)                      33
(PID.TID 0000.0001)     ;
(PID.TID 0000.0001) PTRACERS_SOM_Advection = /* tracer uses SOM advection scheme */
(PID.TID 0000.0001)                   F
(PID.TID 0000.0001)     ;
(PID.TID 0000.0001) PTRACERS_ImplVertAdv = /* implicit vert. advection flag */
(PID.TID 0000.0001)                   F
(PID.TID 0000.0001)     ;
(PID.TID 0000.0001) PTRACERS_diffKh = /* Laplacian Diffusivity */
(PID.TID 0000.0001)                 0.000000000000000E+00
(PID.TID 0000.0001)     ;
(PID.TID 0000.0001) PTRACERS_diffK4 = /* Biharmonic Diffusivity */
(PID.TID 0000.0001)                 0.000000000000000E+00
(PID.TID 0000.0001)     ;
(PID.TID 0000.0001) PTRACERS_diffKrNr = /* Vertical Diffusivity */
(PID.TID 0000.0001)    35 @  1.000000000000000E-05              /* K =  1: 35 */
(PID.TID 0000.0001)     ;
(PID.TID 0000.0001) PTRACERS_useGMRedi = /* apply GM-Redi */
(PID.TID 0000.0001)                   F
(PID.TID 0000.0001)     ;
(PID.TID 0000.0001) PTRACERS_useDWNSLP = /* apply DOWN-SLOPE Flow */
(PID.TID 0000.0001)                   F
(PID.TID 0000.0001)     ;
(PID.TID 0000.0001) PTRACERS_useKPP = /* apply KPP scheme */
(PID.TID 0000.0001)                   T
(PID.TID 0000.0001)     ;
(PID.TID 0000.0001) PTRACERS_ref = /* Reference vertical profile */
(PID.TID 0000.0001)    35 @  0.000000000000000E+00              /* K =  1: 35 */
(PID.TID 0000.0001)     ;
(PID.TID 0000.0001) PTRACERS_EvPrRn =/* tracer conc. in Evap. & Rain */
(PID.TID 0000.0001)                 1.234567000000000E+05
(PID.TID 0000.0001)     ;
(PID.TID 0000.0001)  -----------------------------------
(PID.TID 0000.0001)  tracer number :   39
(PID.TID 0000.0001) PTRACERS_names = /* Tracer short name */
(PID.TID 0000.0001)               'BIO_3_002'
(PID.TID 0000.0001)     ;
(PID.TID 0000.0001) PTRACERS_long_names = /* Tracer long name */
(PID.TID 0000.0001)               ''
(PID.TID 0000.0001)     ;
(PID.TID 0000.0001) PTRACERS_ioLabel = /* tracer IO Label */
(PID.TID 0000.0001)               '39'
(PID.TID 0000.0001)     ;
(PID.TID 0000.0001) PTRACERS_advScheme = /* Advection Scheme */
(PID.TID 0000.0001)                      33
(PID.TID 0000.0001)     ;
(PID.TID 0000.0001) PTRACERS_SOM_Advection = /* tracer uses SOM advection scheme */
(PID.TID 0000.0001)                   F
(PID.TID 0000.0001)     ;
(PID.TID 0000.0001) PTRACERS_ImplVertAdv = /* implicit vert. advection flag */
(PID.TID 0000.0001)                   F
(PID.TID 0000.0001)     ;
(PID.TID 0000.0001) PTRACERS_diffKh = /* Laplacian Diffusivity */
(PID.TID 0000.0001)                 0.000000000000000E+00
(PID.TID 0000.0001)     ;
(PID.TID 0000.0001) PTRACERS_diffK4 = /* Biharmonic Diffusivity */
(PID.TID 0000.0001)                 0.000000000000000E+00
(PID.TID 0000.0001)     ;
(PID.TID 0000.0001) PTRACERS_diffKrNr = /* Vertical Diffusivity */
(PID.TID 0000.0001)    35 @  1.000000000000000E-05              /* K =  1: 35 */
(PID.TID 0000.0001)     ;
(PID.TID 0000.0001) PTRACERS_useGMRedi = /* apply GM-Redi */
(PID.TID 0000.0001)                   F
(PID.TID 0000.0001)     ;
(PID.TID 0000.0001) PTRACERS_useDWNSLP = /* apply DOWN-SLOPE Flow */
(PID.TID 0000.0001)                   F
(PID.TID 0000.0001)     ;
(PID.TID 0000.0001) PTRACERS_useKPP = /* apply KPP scheme */
(PID.TID 0000.0001)                   T
(PID.TID 0000.0001)     ;
(PID.TID 0000.0001) PTRACERS_ref = /* Reference vertical profile */
(PID.TID 0000.0001)    35 @  0.000000000000000E+00              /* K =  1: 35 */
(PID.TID 0000.0001)     ;
(PID.TID 0000.0001) PTRACERS_EvPrRn =/* tracer conc. in Evap. & Rain */
(PID.TID 0000.0001)                 1.234567000000000E+05
(PID.TID 0000.0001)     ;
(PID.TID 0000.0001)  -----------------------------------
(PID.TID 0000.0001)  tracer number :   40
(PID.TID 0000.0001) PTRACERS_names = /* Tracer short name */
(PID.TID 0000.0001)               'BIO_3_003'
(PID.TID 0000.0001)     ;
(PID.TID 0000.0001) PTRACERS_long_names = /* Tracer long name */
(PID.TID 0000.0001)               ''
(PID.TID 0000.0001)     ;
(PID.TID 0000.0001) PTRACERS_ioLabel = /* tracer IO Label */
(PID.TID 0000.0001)               '40'
(PID.TID 0000.0001)     ;
(PID.TID 0000.0001) PTRACERS_advScheme = /* Advection Scheme */
(PID.TID 0000.0001)                      33
(PID.TID 0000.0001)     ;
(PID.TID 0000.0001) PTRACERS_SOM_Advection = /* tracer uses SOM advection scheme */
(PID.TID 0000.0001)                   F
(PID.TID 0000.0001)     ;
(PID.TID 0000.0001) PTRACERS_ImplVertAdv = /* implicit vert. advection flag */
(PID.TID 0000.0001)                   F
(PID.TID 0000.0001)     ;
(PID.TID 0000.0001) PTRACERS_diffKh = /* Laplacian Diffusivity */
(PID.TID 0000.0001)                 0.000000000000000E+00
(PID.TID 0000.0001)     ;
(PID.TID 0000.0001) PTRACERS_diffK4 = /* Biharmonic Diffusivity */
(PID.TID 0000.0001)                 0.000000000000000E+00
(PID.TID 0000.0001)     ;
(PID.TID 0000.0001) PTRACERS_diffKrNr = /* Vertical Diffusivity */
(PID.TID 0000.0001)    35 @  1.000000000000000E-05              /* K =  1: 35 */
(PID.TID 0000.0001)     ;
(PID.TID 0000.0001) PTRACERS_useGMRedi = /* apply GM-Redi */
(PID.TID 0000.0001)                   F
(PID.TID 0000.0001)     ;
(PID.TID 0000.0001) PTRACERS_useDWNSLP = /* apply DOWN-SLOPE Flow */
(PID.TID 0000.0001)                   F
(PID.TID 0000.0001)     ;
(PID.TID 0000.0001) PTRACERS_useKPP = /* apply KPP scheme */
(PID.TID 0000.0001)                   T
(PID.TID 0000.0001)     ;
(PID.TID 0000.0001) PTRACERS_ref = /* Reference vertical profile */
(PID.TID 0000.0001)    35 @  0.000000000000000E+00              /* K =  1: 35 */
(PID.TID 0000.0001)     ;
(PID.TID 0000.0001) PTRACERS_EvPrRn =/* tracer conc. in Evap. & Rain */
(PID.TID 0000.0001)                 1.234567000000000E+05
(PID.TID 0000.0001)     ;
(PID.TID 0000.0001)  -----------------------------------
(PID.TID 0000.0001)  tracer number :   41
(PID.TID 0000.0001) PTRACERS_names = /* Tracer short name */
(PID.TID 0000.0001)               'BIO_3_004'
(PID.TID 0000.0001)     ;
(PID.TID 0000.0001) PTRACERS_long_names = /* Tracer long name */
(PID.TID 0000.0001)               ''
(PID.TID 0000.0001)     ;
(PID.TID 0000.0001) PTRACERS_ioLabel = /* tracer IO Label */
(PID.TID 0000.0001)               '41'
(PID.TID 0000.0001)     ;
(PID.TID 0000.0001) PTRACERS_advScheme = /* Advection Scheme */
(PID.TID 0000.0001)                      33
(PID.TID 0000.0001)     ;
(PID.TID 0000.0001) PTRACERS_SOM_Advection = /* tracer uses SOM advection scheme */
(PID.TID 0000.0001)                   F
(PID.TID 0000.0001)     ;
(PID.TID 0000.0001) PTRACERS_ImplVertAdv = /* implicit vert. advection flag */
(PID.TID 0000.0001)                   F
(PID.TID 0000.0001)     ;
(PID.TID 0000.0001) PTRACERS_diffKh = /* Laplacian Diffusivity */
(PID.TID 0000.0001)                 0.000000000000000E+00
(PID.TID 0000.0001)     ;
(PID.TID 0000.0001) PTRACERS_diffK4 = /* Biharmonic Diffusivity */
(PID.TID 0000.0001)                 0.000000000000000E+00
(PID.TID 0000.0001)     ;
(PID.TID 0000.0001) PTRACERS_diffKrNr = /* Vertical Diffusivity */
(PID.TID 0000.0001)    35 @  1.000000000000000E-05              /* K =  1: 35 */
(PID.TID 0000.0001)     ;
(PID.TID 0000.0001) PTRACERS_useGMRedi = /* apply GM-Redi */
(PID.TID 0000.0001)                   F
(PID.TID 0000.0001)     ;
(PID.TID 0000.0001) PTRACERS_useDWNSLP = /* apply DOWN-SLOPE Flow */
(PID.TID 0000.0001)                   F
(PID.TID 0000.0001)     ;
(PID.TID 0000.0001) PTRACERS_useKPP = /* apply KPP scheme */
(PID.TID 0000.0001)                   T
(PID.TID 0000.0001)     ;
(PID.TID 0000.0001) PTRACERS_ref = /* Reference vertical profile */
(PID.TID 0000.0001)    35 @  0.000000000000000E+00              /* K =  1: 35 */
(PID.TID 0000.0001)     ;
(PID.TID 0000.0001) PTRACERS_EvPrRn =/* tracer conc. in Evap. & Rain */
(PID.TID 0000.0001)                 1.234567000000000E+05
(PID.TID 0000.0001)     ;
(PID.TID 0000.0001)  -----------------------------------
(PID.TID 0000.0001)  tracer number :   42
(PID.TID 0000.0001) PTRACERS_names = /* Tracer short name */
(PID.TID 0000.0001)               'BIO_3_005'
(PID.TID 0000.0001)     ;
(PID.TID 0000.0001) PTRACERS_long_names = /* Tracer long name */
(PID.TID 0000.0001)               ''
(PID.TID 0000.0001)     ;
(PID.TID 0000.0001) PTRACERS_ioLabel = /* tracer IO Label */
(PID.TID 0000.0001)               '42'
(PID.TID 0000.0001)     ;
(PID.TID 0000.0001) PTRACERS_advScheme = /* Advection Scheme */
(PID.TID 0000.0001)                      33
(PID.TID 0000.0001)     ;
(PID.TID 0000.0001) PTRACERS_SOM_Advection = /* tracer uses SOM advection scheme */
(PID.TID 0000.0001)                   F
(PID.TID 0000.0001)     ;
(PID.TID 0000.0001) PTRACERS_ImplVertAdv = /* implicit vert. advection flag */
(PID.TID 0000.0001)                   F
(PID.TID 0000.0001)     ;
(PID.TID 0000.0001) PTRACERS_diffKh = /* Laplacian Diffusivity */
(PID.TID 0000.0001)                 0.000000000000000E+00
(PID.TID 0000.0001)     ;
(PID.TID 0000.0001) PTRACERS_diffK4 = /* Biharmonic Diffusivity */
(PID.TID 0000.0001)                 0.000000000000000E+00
(PID.TID 0000.0001)     ;
(PID.TID 0000.0001) PTRACERS_diffKrNr = /* Vertical Diffusivity */
(PID.TID 0000.0001)    35 @  1.000000000000000E-05              /* K =  1: 35 */
(PID.TID 0000.0001)     ;
(PID.TID 0000.0001) PTRACERS_useGMRedi = /* apply GM-Redi */
(PID.TID 0000.0001)                   F
(PID.TID 0000.0001)     ;
(PID.TID 0000.0001) PTRACERS_useDWNSLP = /* apply DOWN-SLOPE Flow */
(PID.TID 0000.0001)                   F
(PID.TID 0000.0001)     ;
(PID.TID 0000.0001) PTRACERS_useKPP = /* apply KPP scheme */
(PID.TID 0000.0001)                   T
(PID.TID 0000.0001)     ;
(PID.TID 0000.0001) PTRACERS_ref = /* Reference vertical profile */
(PID.TID 0000.0001)    35 @  0.000000000000000E+00              /* K =  1: 35 */
(PID.TID 0000.0001)     ;
(PID.TID 0000.0001) PTRACERS_EvPrRn =/* tracer conc. in Evap. & Rain */
(PID.TID 0000.0001)                 1.234567000000000E+05
(PID.TID 0000.0001)     ;
(PID.TID 0000.0001)  -----------------------------------
(PID.TID 0000.0001)  tracer number :   43
(PID.TID 0000.0001) PTRACERS_names = /* Tracer short name */
(PID.TID 0000.0001)               'BIO_3_006'
(PID.TID 0000.0001)     ;
(PID.TID 0000.0001) PTRACERS_long_names = /* Tracer long name */
(PID.TID 0000.0001)               ''
(PID.TID 0000.0001)     ;
(PID.TID 0000.0001) PTRACERS_ioLabel = /* tracer IO Label */
(PID.TID 0000.0001)               '43'
(PID.TID 0000.0001)     ;
(PID.TID 0000.0001) PTRACERS_advScheme = /* Advection Scheme */
(PID.TID 0000.0001)                      33
(PID.TID 0000.0001)     ;
(PID.TID 0000.0001) PTRACERS_SOM_Advection = /* tracer uses SOM advection scheme */
(PID.TID 0000.0001)                   F
(PID.TID 0000.0001)     ;
(PID.TID 0000.0001) PTRACERS_ImplVertAdv = /* implicit vert. advection flag */
(PID.TID 0000.0001)                   F
(PID.TID 0000.0001)     ;
(PID.TID 0000.0001) PTRACERS_diffKh = /* Laplacian Diffusivity */
(PID.TID 0000.0001)                 0.000000000000000E+00
(PID.TID 0000.0001)     ;
(PID.TID 0000.0001) PTRACERS_diffK4 = /* Biharmonic Diffusivity */
(PID.TID 0000.0001)                 0.000000000000000E+00
(PID.TID 0000.0001)     ;
(PID.TID 0000.0001) PTRACERS_diffKrNr = /* Vertical Diffusivity */
(PID.TID 0000.0001)    35 @  1.000000000000000E-05              /* K =  1: 35 */
(PID.TID 0000.0001)     ;
(PID.TID 0000.0001) PTRACERS_useGMRedi = /* apply GM-Redi */
(PID.TID 0000.0001)                   F
(PID.TID 0000.0001)     ;
(PID.TID 0000.0001) PTRACERS_useDWNSLP = /* apply DOWN-SLOPE Flow */
(PID.TID 0000.0001)                   F
(PID.TID 0000.0001)     ;
(PID.TID 0000.0001) PTRACERS_useKPP = /* apply KPP scheme */
(PID.TID 0000.0001)                   T
(PID.TID 0000.0001)     ;
(PID.TID 0000.0001) PTRACERS_ref = /* Reference vertical profile */
(PID.TID 0000.0001)    35 @  0.000000000000000E+00              /* K =  1: 35 */
(PID.TID 0000.0001)     ;
(PID.TID 0000.0001) PTRACERS_EvPrRn =/* tracer conc. in Evap. & Rain */
(PID.TID 0000.0001)                 1.234567000000000E+05
(PID.TID 0000.0001)     ;
(PID.TID 0000.0001)  -----------------------------------
(PID.TID 0000.0001)  tracer number :   44
(PID.TID 0000.0001) PTRACERS_names = /* Tracer short name */
(PID.TID 0000.0001)               'BIO_3_007'
(PID.TID 0000.0001)     ;
(PID.TID 0000.0001) PTRACERS_long_names = /* Tracer long name */
(PID.TID 0000.0001)               ''
(PID.TID 0000.0001)     ;
(PID.TID 0000.0001) PTRACERS_ioLabel = /* tracer IO Label */
(PID.TID 0000.0001)               '44'
(PID.TID 0000.0001)     ;
(PID.TID 0000.0001) PTRACERS_advScheme = /* Advection Scheme */
(PID.TID 0000.0001)                      33
(PID.TID 0000.0001)     ;
(PID.TID 0000.0001) PTRACERS_SOM_Advection = /* tracer uses SOM advection scheme */
(PID.TID 0000.0001)                   F
(PID.TID 0000.0001)     ;
(PID.TID 0000.0001) PTRACERS_ImplVertAdv = /* implicit vert. advection flag */
(PID.TID 0000.0001)                   F
(PID.TID 0000.0001)     ;
(PID.TID 0000.0001) PTRACERS_diffKh = /* Laplacian Diffusivity */
(PID.TID 0000.0001)                 0.000000000000000E+00
(PID.TID 0000.0001)     ;
(PID.TID 0000.0001) PTRACERS_diffK4 = /* Biharmonic Diffusivity */
(PID.TID 0000.0001)                 0.000000000000000E+00
(PID.TID 0000.0001)     ;
(PID.TID 0000.0001) PTRACERS_diffKrNr = /* Vertical Diffusivity */
(PID.TID 0000.0001)    35 @  1.000000000000000E-05              /* K =  1: 35 */
(PID.TID 0000.0001)     ;
(PID.TID 0000.0001) PTRACERS_useGMRedi = /* apply GM-Redi */
(PID.TID 0000.0001)                   F
(PID.TID 0000.0001)     ;
(PID.TID 0000.0001) PTRACERS_useDWNSLP = /* apply DOWN-SLOPE Flow */
(PID.TID 0000.0001)                   F
(PID.TID 0000.0001)     ;
(PID.TID 0000.0001) PTRACERS_useKPP = /* apply KPP scheme */
(PID.TID 0000.0001)                   T
(PID.TID 0000.0001)     ;
(PID.TID 0000.0001) PTRACERS_ref = /* Reference vertical profile */
(PID.TID 0000.0001)    35 @  0.000000000000000E+00              /* K =  1: 35 */
(PID.TID 0000.0001)     ;
(PID.TID 0000.0001) PTRACERS_EvPrRn =/* tracer conc. in Evap. & Rain */
(PID.TID 0000.0001)                 1.234567000000000E+05
(PID.TID 0000.0001)     ;
(PID.TID 0000.0001)  -----------------------------------
(PID.TID 0000.0001)  tracer number :   45
(PID.TID 0000.0001) PTRACERS_names = /* Tracer short name */
(PID.TID 0000.0001)               'BIO_3_008'
(PID.TID 0000.0001)     ;
(PID.TID 0000.0001) PTRACERS_long_names = /* Tracer long name */
(PID.TID 0000.0001)               ''
(PID.TID 0000.0001)     ;
(PID.TID 0000.0001) PTRACERS_ioLabel = /* tracer IO Label */
(PID.TID 0000.0001)               '45'
(PID.TID 0000.0001)     ;
(PID.TID 0000.0001) PTRACERS_advScheme = /* Advection Scheme */
(PID.TID 0000.0001)                      33
(PID.TID 0000.0001)     ;
(PID.TID 0000.0001) PTRACERS_SOM_Advection = /* tracer uses SOM advection scheme */
(PID.TID 0000.0001)                   F
(PID.TID 0000.0001)     ;
(PID.TID 0000.0001) PTRACERS_ImplVertAdv = /* implicit vert. advection flag */
(PID.TID 0000.0001)                   F
(PID.TID 0000.0001)     ;
(PID.TID 0000.0001) PTRACERS_diffKh = /* Laplacian Diffusivity */
(PID.TID 0000.0001)                 0.000000000000000E+00
(PID.TID 0000.0001)     ;
(PID.TID 0000.0001) PTRACERS_diffK4 = /* Biharmonic Diffusivity */
(PID.TID 0000.0001)                 0.000000000000000E+00
(PID.TID 0000.0001)     ;
(PID.TID 0000.0001) PTRACERS_diffKrNr = /* Vertical Diffusivity */
(PID.TID 0000.0001)    35 @  1.000000000000000E-05              /* K =  1: 35 */
(PID.TID 0000.0001)     ;
(PID.TID 0000.0001) PTRACERS_useGMRedi = /* apply GM-Redi */
(PID.TID 0000.0001)                   F
(PID.TID 0000.0001)     ;
(PID.TID 0000.0001) PTRACERS_useDWNSLP = /* apply DOWN-SLOPE Flow */
(PID.TID 0000.0001)                   F
(PID.TID 0000.0001)     ;
(PID.TID 0000.0001) PTRACERS_useKPP = /* apply KPP scheme */
(PID.TID 0000.0001)                   T
(PID.TID 0000.0001)     ;
(PID.TID 0000.0001) PTRACERS_ref = /* Reference vertical profile */
(PID.TID 0000.0001)    35 @  0.000000000000000E+00              /* K =  1: 35 */
(PID.TID 0000.0001)     ;
(PID.TID 0000.0001) PTRACERS_EvPrRn =/* tracer conc. in Evap. & Rain */
(PID.TID 0000.0001)                 1.234567000000000E+05
(PID.TID 0000.0001)     ;
(PID.TID 0000.0001)  -----------------------------------
(PID.TID 0000.0001)  tracer number :   46
(PID.TID 0000.0001) PTRACERS_names = /* Tracer short name */
(PID.TID 0000.0001)               'BIO_3_009'
(PID.TID 0000.0001)     ;
(PID.TID 0000.0001) PTRACERS_long_names = /* Tracer long name */
(PID.TID 0000.0001)               ''
(PID.TID 0000.0001)     ;
(PID.TID 0000.0001) PTRACERS_ioLabel = /* tracer IO Label */
(PID.TID 0000.0001)               '46'
(PID.TID 0000.0001)     ;
(PID.TID 0000.0001) PTRACERS_advScheme = /* Advection Scheme */
(PID.TID 0000.0001)                      33
(PID.TID 0000.0001)     ;
(PID.TID 0000.0001) PTRACERS_SOM_Advection = /* tracer uses SOM advection scheme */
(PID.TID 0000.0001)                   F
(PID.TID 0000.0001)     ;
(PID.TID 0000.0001) PTRACERS_ImplVertAdv = /* implicit vert. advection flag */
(PID.TID 0000.0001)                   F
(PID.TID 0000.0001)     ;
(PID.TID 0000.0001) PTRACERS_diffKh = /* Laplacian Diffusivity */
(PID.TID 0000.0001)                 0.000000000000000E+00
(PID.TID 0000.0001)     ;
(PID.TID 0000.0001) PTRACERS_diffK4 = /* Biharmonic Diffusivity */
(PID.TID 0000.0001)                 0.000000000000000E+00
(PID.TID 0000.0001)     ;
(PID.TID 0000.0001) PTRACERS_diffKrNr = /* Vertical Diffusivity */
(PID.TID 0000.0001)    35 @  1.000000000000000E-05              /* K =  1: 35 */
(PID.TID 0000.0001)     ;
(PID.TID 0000.0001) PTRACERS_useGMRedi = /* apply GM-Redi */
(PID.TID 0000.0001)                   F
(PID.TID 0000.0001)     ;
(PID.TID 0000.0001) PTRACERS_useDWNSLP = /* apply DOWN-SLOPE Flow */
(PID.TID 0000.0001)                   F
(PID.TID 0000.0001)     ;
(PID.TID 0000.0001) PTRACERS_useKPP = /* apply KPP scheme */
(PID.TID 0000.0001)                   T
(PID.TID 0000.0001)     ;
(PID.TID 0000.0001) PTRACERS_ref = /* Reference vertical profile */
(PID.TID 0000.0001)    35 @  0.000000000000000E+00              /* K =  1: 35 */
(PID.TID 0000.0001)     ;
(PID.TID 0000.0001) PTRACERS_EvPrRn =/* tracer conc. in Evap. & Rain */
(PID.TID 0000.0001)                 1.234567000000000E+05
(PID.TID 0000.0001)     ;
(PID.TID 0000.0001)  -----------------------------------
(PID.TID 0000.0001)  tracer number :   47
(PID.TID 0000.0001) PTRACERS_names = /* Tracer short name */
(PID.TID 0000.0001)               'BIO_3_010'
(PID.TID 0000.0001)     ;
(PID.TID 0000.0001) PTRACERS_long_names = /* Tracer long name */
(PID.TID 0000.0001)               ''
(PID.TID 0000.0001)     ;
(PID.TID 0000.0001) PTRACERS_ioLabel = /* tracer IO Label */
(PID.TID 0000.0001)               '47'
(PID.TID 0000.0001)     ;
(PID.TID 0000.0001) PTRACERS_advScheme = /* Advection Scheme */
(PID.TID 0000.0001)                      33
(PID.TID 0000.0001)     ;
(PID.TID 0000.0001) PTRACERS_SOM_Advection = /* tracer uses SOM advection scheme */
(PID.TID 0000.0001)                   F
(PID.TID 0000.0001)     ;
(PID.TID 0000.0001) PTRACERS_ImplVertAdv = /* implicit vert. advection flag */
(PID.TID 0000.0001)                   F
(PID.TID 0000.0001)     ;
(PID.TID 0000.0001) PTRACERS_diffKh = /* Laplacian Diffusivity */
(PID.TID 0000.0001)                 0.000000000000000E+00
(PID.TID 0000.0001)     ;
(PID.TID 0000.0001) PTRACERS_diffK4 = /* Biharmonic Diffusivity */
(PID.TID 0000.0001)                 0.000000000000000E+00
(PID.TID 0000.0001)     ;
(PID.TID 0000.0001) PTRACERS_diffKrNr = /* Vertical Diffusivity */
(PID.TID 0000.0001)    35 @  1.000000000000000E-05              /* K =  1: 35 */
(PID.TID 0000.0001)     ;
(PID.TID 0000.0001) PTRACERS_useGMRedi = /* apply GM-Redi */
(PID.TID 0000.0001)                   F
(PID.TID 0000.0001)     ;
(PID.TID 0000.0001) PTRACERS_useDWNSLP = /* apply DOWN-SLOPE Flow */
(PID.TID 0000.0001)                   F
(PID.TID 0000.0001)     ;
(PID.TID 0000.0001) PTRACERS_useKPP = /* apply KPP scheme */
(PID.TID 0000.0001)                   T
(PID.TID 0000.0001)     ;
(PID.TID 0000.0001) PTRACERS_ref = /* Reference vertical profile */
(PID.TID 0000.0001)    35 @  0.000000000000000E+00              /* K =  1: 35 */
(PID.TID 0000.0001)     ;
(PID.TID 0000.0001) PTRACERS_EvPrRn =/* tracer conc. in Evap. & Rain */
(PID.TID 0000.0001)                 1.234567000000000E+05
(PID.TID 0000.0001)     ;
(PID.TID 0000.0001)  -----------------------------------
(PID.TID 0000.0001)  tracer number :   48
(PID.TID 0000.0001) PTRACERS_names = /* Tracer short name */
(PID.TID 0000.0001)               'BIO_3_011'
(PID.TID 0000.0001)     ;
(PID.TID 0000.0001) PTRACERS_long_names = /* Tracer long name */
(PID.TID 0000.0001)               ''
(PID.TID 0000.0001)     ;
(PID.TID 0000.0001) PTRACERS_ioLabel = /* tracer IO Label */
(PID.TID 0000.0001)               '48'
(PID.TID 0000.0001)     ;
(PID.TID 0000.0001) PTRACERS_advScheme = /* Advection Scheme */
(PID.TID 0000.0001)                      33
(PID.TID 0000.0001)     ;
(PID.TID 0000.0001) PTRACERS_SOM_Advection = /* tracer uses SOM advection scheme */
(PID.TID 0000.0001)                   F
(PID.TID 0000.0001)     ;
(PID.TID 0000.0001) PTRACERS_ImplVertAdv = /* implicit vert. advection flag */
(PID.TID 0000.0001)                   F
(PID.TID 0000.0001)     ;
(PID.TID 0000.0001) PTRACERS_diffKh = /* Laplacian Diffusivity */
(PID.TID 0000.0001)                 0.000000000000000E+00
(PID.TID 0000.0001)     ;
(PID.TID 0000.0001) PTRACERS_diffK4 = /* Biharmonic Diffusivity */
(PID.TID 0000.0001)                 0.000000000000000E+00
(PID.TID 0000.0001)     ;
(PID.TID 0000.0001) PTRACERS_diffKrNr = /* Vertical Diffusivity */
(PID.TID 0000.0001)    35 @  1.000000000000000E-05              /* K =  1: 35 */
(PID.TID 0000.0001)     ;
(PID.TID 0000.0001) PTRACERS_useGMRedi = /* apply GM-Redi */
(PID.TID 0000.0001)                   F
(PID.TID 0000.0001)     ;
(PID.TID 0000.0001) PTRACERS_useDWNSLP = /* apply DOWN-SLOPE Flow */
(PID.TID 0000.0001)                   F
(PID.TID 0000.0001)     ;
(PID.TID 0000.0001) PTRACERS_useKPP = /* apply KPP scheme */
(PID.TID 0000.0001)                   T
(PID.TID 0000.0001)     ;
(PID.TID 0000.0001) PTRACERS_ref = /* Reference vertical profile */
(PID.TID 0000.0001)    35 @  0.000000000000000E+00              /* K =  1: 35 */
(PID.TID 0000.0001)     ;
(PID.TID 0000.0001) PTRACERS_EvPrRn =/* tracer conc. in Evap. & Rain */
(PID.TID 0000.0001)                 1.234567000000000E+05
(PID.TID 0000.0001)     ;
(PID.TID 0000.0001)  -----------------------------------
(PID.TID 0000.0001)  tracer number :   49
(PID.TID 0000.0001) PTRACERS_names = /* Tracer short name */
(PID.TID 0000.0001)               'BIO_3_012'
(PID.TID 0000.0001)     ;
(PID.TID 0000.0001) PTRACERS_long_names = /* Tracer long name */
(PID.TID 0000.0001)               ''
(PID.TID 0000.0001)     ;
(PID.TID 0000.0001) PTRACERS_ioLabel = /* tracer IO Label */
(PID.TID 0000.0001)               '49'
(PID.TID 0000.0001)     ;
(PID.TID 0000.0001) PTRACERS_advScheme = /* Advection Scheme */
(PID.TID 0000.0001)                      33
(PID.TID 0000.0001)     ;
(PID.TID 0000.0001) PTRACERS_SOM_Advection = /* tracer uses SOM advection scheme */
(PID.TID 0000.0001)                   F
(PID.TID 0000.0001)     ;
(PID.TID 0000.0001) PTRACERS_ImplVertAdv = /* implicit vert. advection flag */
(PID.TID 0000.0001)                   F
(PID.TID 0000.0001)     ;
(PID.TID 0000.0001) PTRACERS_diffKh = /* Laplacian Diffusivity */
(PID.TID 0000.0001)                 0.000000000000000E+00
(PID.TID 0000.0001)     ;
(PID.TID 0000.0001) PTRACERS_diffK4 = /* Biharmonic Diffusivity */
(PID.TID 0000.0001)                 0.000000000000000E+00
(PID.TID 0000.0001)     ;
(PID.TID 0000.0001) PTRACERS_diffKrNr = /* Vertical Diffusivity */
(PID.TID 0000.0001)    35 @  1.000000000000000E-05              /* K =  1: 35 */
(PID.TID 0000.0001)     ;
(PID.TID 0000.0001) PTRACERS_useGMRedi = /* apply GM-Redi */
(PID.TID 0000.0001)                   F
(PID.TID 0000.0001)     ;
(PID.TID 0000.0001) PTRACERS_useDWNSLP = /* apply DOWN-SLOPE Flow */
(PID.TID 0000.0001)                   F
(PID.TID 0000.0001)     ;
(PID.TID 0000.0001) PTRACERS_useKPP = /* apply KPP scheme */
(PID.TID 0000.0001)                   T
(PID.TID 0000.0001)     ;
(PID.TID 0000.0001) PTRACERS_ref = /* Reference vertical profile */
(PID.TID 0000.0001)    35 @  0.000000000000000E+00              /* K =  1: 35 */
(PID.TID 0000.0001)     ;
(PID.TID 0000.0001) PTRACERS_EvPrRn =/* tracer conc. in Evap. & Rain */
(PID.TID 0000.0001)                 1.234567000000000E+05
(PID.TID 0000.0001)     ;
(PID.TID 0000.0001)  -----------------------------------
(PID.TID 0000.0001)  tracer number :   50
(PID.TID 0000.0001) PTRACERS_names = /* Tracer short name */
(PID.TID 0000.0001)               'BIO_3_013'
(PID.TID 0000.0001)     ;
(PID.TID 0000.0001) PTRACERS_long_names = /* Tracer long name */
(PID.TID 0000.0001)               ''
(PID.TID 0000.0001)     ;
(PID.TID 0000.0001) PTRACERS_ioLabel = /* tracer IO Label */
(PID.TID 0000.0001)               '50'
(PID.TID 0000.0001)     ;
(PID.TID 0000.0001) PTRACERS_advScheme = /* Advection Scheme */
(PID.TID 0000.0001)                      33
(PID.TID 0000.0001)     ;
(PID.TID 0000.0001) PTRACERS_SOM_Advection = /* tracer uses SOM advection scheme */
(PID.TID 0000.0001)                   F
(PID.TID 0000.0001)     ;
(PID.TID 0000.0001) PTRACERS_ImplVertAdv = /* implicit vert. advection flag */
(PID.TID 0000.0001)                   F
(PID.TID 0000.0001)     ;
(PID.TID 0000.0001) PTRACERS_diffKh = /* Laplacian Diffusivity */
(PID.TID 0000.0001)                 0.000000000000000E+00
(PID.TID 0000.0001)     ;
(PID.TID 0000.0001) PTRACERS_diffK4 = /* Biharmonic Diffusivity */
(PID.TID 0000.0001)                 0.000000000000000E+00
(PID.TID 0000.0001)     ;
(PID.TID 0000.0001) PTRACERS_diffKrNr = /* Vertical Diffusivity */
(PID.TID 0000.0001)    35 @  1.000000000000000E-05              /* K =  1: 35 */
(PID.TID 0000.0001)     ;
(PID.TID 0000.0001) PTRACERS_useGMRedi = /* apply GM-Redi */
(PID.TID 0000.0001)                   F
(PID.TID 0000.0001)     ;
(PID.TID 0000.0001) PTRACERS_useDWNSLP = /* apply DOWN-SLOPE Flow */
(PID.TID 0000.0001)                   F
(PID.TID 0000.0001)     ;
(PID.TID 0000.0001) PTRACERS_useKPP = /* apply KPP scheme */
(PID.TID 0000.0001)                   T
(PID.TID 0000.0001)     ;
(PID.TID 0000.0001) PTRACERS_ref = /* Reference vertical profile */
(PID.TID 0000.0001)    35 @  0.000000000000000E+00              /* K =  1: 35 */
(PID.TID 0000.0001)     ;
(PID.TID 0000.0001) PTRACERS_EvPrRn =/* tracer conc. in Evap. & Rain */
(PID.TID 0000.0001)                 1.234567000000000E+05
(PID.TID 0000.0001)     ;
(PID.TID 0000.0001)  -----------------------------------
(PID.TID 0000.0001)  tracer number :   51
(PID.TID 0000.0001) PTRACERS_names = /* Tracer short name */
(PID.TID 0000.0001)               'BIO_3_014'
(PID.TID 0000.0001)     ;
(PID.TID 0000.0001) PTRACERS_long_names = /* Tracer long name */
(PID.TID 0000.0001)               ''
(PID.TID 0000.0001)     ;
(PID.TID 0000.0001) PTRACERS_ioLabel = /* tracer IO Label */
(PID.TID 0000.0001)               '51'
(PID.TID 0000.0001)     ;
(PID.TID 0000.0001) PTRACERS_advScheme = /* Advection Scheme */
(PID.TID 0000.0001)                      33
(PID.TID 0000.0001)     ;
(PID.TID 0000.0001) PTRACERS_SOM_Advection = /* tracer uses SOM advection scheme */
(PID.TID 0000.0001)                   F
(PID.TID 0000.0001)     ;
(PID.TID 0000.0001) PTRACERS_ImplVertAdv = /* implicit vert. advection flag */
(PID.TID 0000.0001)                   F
(PID.TID 0000.0001)     ;
(PID.TID 0000.0001) PTRACERS_diffKh = /* Laplacian Diffusivity */
(PID.TID 0000.0001)                 0.000000000000000E+00
(PID.TID 0000.0001)     ;
(PID.TID 0000.0001) PTRACERS_diffK4 = /* Biharmonic Diffusivity */
(PID.TID 0000.0001)                 0.000000000000000E+00
(PID.TID 0000.0001)     ;
(PID.TID 0000.0001) PTRACERS_diffKrNr = /* Vertical Diffusivity */
(PID.TID 0000.0001)    35 @  1.000000000000000E-05              /* K =  1: 35 */
(PID.TID 0000.0001)     ;
(PID.TID 0000.0001) PTRACERS_useGMRedi = /* apply GM-Redi */
(PID.TID 0000.0001)                   F
(PID.TID 0000.0001)     ;
(PID.TID 0000.0001) PTRACERS_useDWNSLP = /* apply DOWN-SLOPE Flow */
(PID.TID 0000.0001)                   F
(PID.TID 0000.0001)     ;
(PID.TID 0000.0001) PTRACERS_useKPP = /* apply KPP scheme */
(PID.TID 0000.0001)                   T
(PID.TID 0000.0001)     ;
(PID.TID 0000.0001) PTRACERS_ref = /* Reference vertical profile */
(PID.TID 0000.0001)    35 @  0.000000000000000E+00              /* K =  1: 35 */
(PID.TID 0000.0001)     ;
(PID.TID 0000.0001) PTRACERS_EvPrRn =/* tracer conc. in Evap. & Rain */
(PID.TID 0000.0001)                 1.234567000000000E+05
(PID.TID 0000.0001)     ;
(PID.TID 0000.0001)  -----------------------------------
(PID.TID 0000.0001)  tracer number :   52
(PID.TID 0000.0001) PTRACERS_names = /* Tracer short name */
(PID.TID 0000.0001)               'BIO_3_015'
(PID.TID 0000.0001)     ;
(PID.TID 0000.0001) PTRACERS_long_names = /* Tracer long name */
(PID.TID 0000.0001)               ''
(PID.TID 0000.0001)     ;
(PID.TID 0000.0001) PTRACERS_ioLabel = /* tracer IO Label */
(PID.TID 0000.0001)               '52'
(PID.TID 0000.0001)     ;
(PID.TID 0000.0001) PTRACERS_advScheme = /* Advection Scheme */
(PID.TID 0000.0001)                      33
(PID.TID 0000.0001)     ;
(PID.TID 0000.0001) PTRACERS_SOM_Advection = /* tracer uses SOM advection scheme */
(PID.TID 0000.0001)                   F
(PID.TID 0000.0001)     ;
(PID.TID 0000.0001) PTRACERS_ImplVertAdv = /* implicit vert. advection flag */
(PID.TID 0000.0001)                   F
(PID.TID 0000.0001)     ;
(PID.TID 0000.0001) PTRACERS_diffKh = /* Laplacian Diffusivity */
(PID.TID 0000.0001)                 0.000000000000000E+00
(PID.TID 0000.0001)     ;
(PID.TID 0000.0001) PTRACERS_diffK4 = /* Biharmonic Diffusivity */
(PID.TID 0000.0001)                 0.000000000000000E+00
(PID.TID 0000.0001)     ;
(PID.TID 0000.0001) PTRACERS_diffKrNr = /* Vertical Diffusivity */
(PID.TID 0000.0001)    35 @  1.000000000000000E-05              /* K =  1: 35 */
(PID.TID 0000.0001)     ;
(PID.TID 0000.0001) PTRACERS_useGMRedi = /* apply GM-Redi */
(PID.TID 0000.0001)                   F
(PID.TID 0000.0001)     ;
(PID.TID 0000.0001) PTRACERS_useDWNSLP = /* apply DOWN-SLOPE Flow */
(PID.TID 0000.0001)                   F
(PID.TID 0000.0001)     ;
(PID.TID 0000.0001) PTRACERS_useKPP = /* apply KPP scheme */
(PID.TID 0000.0001)                   T
(PID.TID 0000.0001)     ;
(PID.TID 0000.0001) PTRACERS_ref = /* Reference vertical profile */
(PID.TID 0000.0001)    35 @  0.000000000000000E+00              /* K =  1: 35 */
(PID.TID 0000.0001)     ;
(PID.TID 0000.0001) PTRACERS_EvPrRn =/* tracer conc. in Evap. & Rain */
(PID.TID 0000.0001)                 1.234567000000000E+05
(PID.TID 0000.0001)     ;
(PID.TID 0000.0001)  -----------------------------------
(PID.TID 0000.0001)  tracer number :   53
(PID.TID 0000.0001) PTRACERS_names = /* Tracer short name */
(PID.TID 0000.0001)               'BIO_3_016'
(PID.TID 0000.0001)     ;
(PID.TID 0000.0001) PTRACERS_long_names = /* Tracer long name */
(PID.TID 0000.0001)               ''
(PID.TID 0000.0001)     ;
(PID.TID 0000.0001) PTRACERS_ioLabel = /* tracer IO Label */
(PID.TID 0000.0001)               '53'
(PID.TID 0000.0001)     ;
(PID.TID 0000.0001) PTRACERS_advScheme = /* Advection Scheme */
(PID.TID 0000.0001)                      33
(PID.TID 0000.0001)     ;
(PID.TID 0000.0001) PTRACERS_SOM_Advection = /* tracer uses SOM advection scheme */
(PID.TID 0000.0001)                   F
(PID.TID 0000.0001)     ;
(PID.TID 0000.0001) PTRACERS_ImplVertAdv = /* implicit vert. advection flag */
(PID.TID 0000.0001)                   F
(PID.TID 0000.0001)     ;
(PID.TID 0000.0001) PTRACERS_diffKh = /* Laplacian Diffusivity */
(PID.TID 0000.0001)                 0.000000000000000E+00
(PID.TID 0000.0001)     ;
(PID.TID 0000.0001) PTRACERS_diffK4 = /* Biharmonic Diffusivity */
(PID.TID 0000.0001)                 0.000000000000000E+00
(PID.TID 0000.0001)     ;
(PID.TID 0000.0001) PTRACERS_diffKrNr = /* Vertical Diffusivity */
(PID.TID 0000.0001)    35 @  1.000000000000000E-05              /* K =  1: 35 */
(PID.TID 0000.0001)     ;
(PID.TID 0000.0001) PTRACERS_useGMRedi = /* apply GM-Redi */
(PID.TID 0000.0001)                   F
(PID.TID 0000.0001)     ;
(PID.TID 0000.0001) PTRACERS_useDWNSLP = /* apply DOWN-SLOPE Flow */
(PID.TID 0000.0001)                   F
(PID.TID 0000.0001)     ;
(PID.TID 0000.0001) PTRACERS_useKPP = /* apply KPP scheme */
(PID.TID 0000.0001)                   T
(PID.TID 0000.0001)     ;
(PID.TID 0000.0001) PTRACERS_ref = /* Reference vertical profile */
(PID.TID 0000.0001)    35 @  0.000000000000000E+00              /* K =  1: 35 */
(PID.TID 0000.0001)     ;
(PID.TID 0000.0001) PTRACERS_EvPrRn =/* tracer conc. in Evap. & Rain */
(PID.TID 0000.0001)                 1.234567000000000E+05
(PID.TID 0000.0001)     ;
(PID.TID 0000.0001)  -----------------------------------
(PID.TID 0000.0001)  tracer number :   54
(PID.TID 0000.0001) PTRACERS_names = /* Tracer short name */
(PID.TID 0000.0001)               'BIO_4_001'
(PID.TID 0000.0001)     ;
(PID.TID 0000.0001) PTRACERS_long_names = /* Tracer long name */
(PID.TID 0000.0001)               ''
(PID.TID 0000.0001)     ;
(PID.TID 0000.0001) PTRACERS_ioLabel = /* tracer IO Label */
(PID.TID 0000.0001)               '54'
(PID.TID 0000.0001)     ;
(PID.TID 0000.0001) PTRACERS_advScheme = /* Advection Scheme */
(PID.TID 0000.0001)                      33
(PID.TID 0000.0001)     ;
(PID.TID 0000.0001) PTRACERS_SOM_Advection = /* tracer uses SOM advection scheme */
(PID.TID 0000.0001)                   F
(PID.TID 0000.0001)     ;
(PID.TID 0000.0001) PTRACERS_ImplVertAdv = /* implicit vert. advection flag */
(PID.TID 0000.0001)                   F
(PID.TID 0000.0001)     ;
(PID.TID 0000.0001) PTRACERS_diffKh = /* Laplacian Diffusivity */
(PID.TID 0000.0001)                 0.000000000000000E+00
(PID.TID 0000.0001)     ;
(PID.TID 0000.0001) PTRACERS_diffK4 = /* Biharmonic Diffusivity */
(PID.TID 0000.0001)                 0.000000000000000E+00
(PID.TID 0000.0001)     ;
(PID.TID 0000.0001) PTRACERS_diffKrNr = /* Vertical Diffusivity */
(PID.TID 0000.0001)    35 @  1.000000000000000E-05              /* K =  1: 35 */
(PID.TID 0000.0001)     ;
(PID.TID 0000.0001) PTRACERS_useGMRedi = /* apply GM-Redi */
(PID.TID 0000.0001)                   F
(PID.TID 0000.0001)     ;
(PID.TID 0000.0001) PTRACERS_useDWNSLP = /* apply DOWN-SLOPE Flow */
(PID.TID 0000.0001)                   F
(PID.TID 0000.0001)     ;
(PID.TID 0000.0001) PTRACERS_useKPP = /* apply KPP scheme */
(PID.TID 0000.0001)                   T
(PID.TID 0000.0001)     ;
(PID.TID 0000.0001) PTRACERS_ref = /* Reference vertical profile */
(PID.TID 0000.0001)    35 @  0.000000000000000E+00              /* K =  1: 35 */
(PID.TID 0000.0001)     ;
(PID.TID 0000.0001) PTRACERS_EvPrRn =/* tracer conc. in Evap. & Rain */
(PID.TID 0000.0001)                 1.234567000000000E+05
(PID.TID 0000.0001)     ;
(PID.TID 0000.0001)  -----------------------------------
(PID.TID 0000.0001)  tracer number :   55
(PID.TID 0000.0001) PTRACERS_names = /* Tracer short name */
(PID.TID 0000.0001)               'BIO_4_002'
(PID.TID 0000.0001)     ;
(PID.TID 0000.0001) PTRACERS_long_names = /* Tracer long name */
(PID.TID 0000.0001)               ''
(PID.TID 0000.0001)     ;
(PID.TID 0000.0001) PTRACERS_ioLabel = /* tracer IO Label */
(PID.TID 0000.0001)               '55'
(PID.TID 0000.0001)     ;
(PID.TID 0000.0001) PTRACERS_advScheme = /* Advection Scheme */
(PID.TID 0000.0001)                      33
(PID.TID 0000.0001)     ;
(PID.TID 0000.0001) PTRACERS_SOM_Advection = /* tracer uses SOM advection scheme */
(PID.TID 0000.0001)                   F
(PID.TID 0000.0001)     ;
(PID.TID 0000.0001) PTRACERS_ImplVertAdv = /* implicit vert. advection flag */
(PID.TID 0000.0001)                   F
(PID.TID 0000.0001)     ;
(PID.TID 0000.0001) PTRACERS_diffKh = /* Laplacian Diffusivity */
(PID.TID 0000.0001)                 0.000000000000000E+00
(PID.TID 0000.0001)     ;
(PID.TID 0000.0001) PTRACERS_diffK4 = /* Biharmonic Diffusivity */
(PID.TID 0000.0001)                 0.000000000000000E+00
(PID.TID 0000.0001)     ;
(PID.TID 0000.0001) PTRACERS_diffKrNr = /* Vertical Diffusivity */
(PID.TID 0000.0001)    35 @  1.000000000000000E-05              /* K =  1: 35 */
(PID.TID 0000.0001)     ;
(PID.TID 0000.0001) PTRACERS_useGMRedi = /* apply GM-Redi */
(PID.TID 0000.0001)                   F
(PID.TID 0000.0001)     ;
(PID.TID 0000.0001) PTRACERS_useDWNSLP = /* apply DOWN-SLOPE Flow */
(PID.TID 0000.0001)                   F
(PID.TID 0000.0001)     ;
(PID.TID 0000.0001) PTRACERS_useKPP = /* apply KPP scheme */
(PID.TID 0000.0001)                   T
(PID.TID 0000.0001)     ;
(PID.TID 0000.0001) PTRACERS_ref = /* Reference vertical profile */
(PID.TID 0000.0001)    35 @  0.000000000000000E+00              /* K =  1: 35 */
(PID.TID 0000.0001)     ;
(PID.TID 0000.0001) PTRACERS_EvPrRn =/* tracer conc. in Evap. & Rain */
(PID.TID 0000.0001)                 1.234567000000000E+05
(PID.TID 0000.0001)     ;
(PID.TID 0000.0001)  -----------------------------------
(PID.TID 0000.0001)  tracer number :   56
(PID.TID 0000.0001) PTRACERS_names = /* Tracer short name */
(PID.TID 0000.0001)               'BIO_4_003'
(PID.TID 0000.0001)     ;
(PID.TID 0000.0001) PTRACERS_long_names = /* Tracer long name */
(PID.TID 0000.0001)               ''
(PID.TID 0000.0001)     ;
(PID.TID 0000.0001) PTRACERS_ioLabel = /* tracer IO Label */
(PID.TID 0000.0001)               '56'
(PID.TID 0000.0001)     ;
(PID.TID 0000.0001) PTRACERS_advScheme = /* Advection Scheme */
(PID.TID 0000.0001)                      33
(PID.TID 0000.0001)     ;
(PID.TID 0000.0001) PTRACERS_SOM_Advection = /* tracer uses SOM advection scheme */
(PID.TID 0000.0001)                   F
(PID.TID 0000.0001)     ;
(PID.TID 0000.0001) PTRACERS_ImplVertAdv = /* implicit vert. advection flag */
(PID.TID 0000.0001)                   F
(PID.TID 0000.0001)     ;
(PID.TID 0000.0001) PTRACERS_diffKh = /* Laplacian Diffusivity */
(PID.TID 0000.0001)                 0.000000000000000E+00
(PID.TID 0000.0001)     ;
(PID.TID 0000.0001) PTRACERS_diffK4 = /* Biharmonic Diffusivity */
(PID.TID 0000.0001)                 0.000000000000000E+00
(PID.TID 0000.0001)     ;
(PID.TID 0000.0001) PTRACERS_diffKrNr = /* Vertical Diffusivity */
(PID.TID 0000.0001)    35 @  1.000000000000000E-05              /* K =  1: 35 */
(PID.TID 0000.0001)     ;
(PID.TID 0000.0001) PTRACERS_useGMRedi = /* apply GM-Redi */
(PID.TID 0000.0001)                   F
(PID.TID 0000.0001)     ;
(PID.TID 0000.0001) PTRACERS_useDWNSLP = /* apply DOWN-SLOPE Flow */
(PID.TID 0000.0001)                   F
(PID.TID 0000.0001)     ;
(PID.TID 0000.0001) PTRACERS_useKPP = /* apply KPP scheme */
(PID.TID 0000.0001)                   T
(PID.TID 0000.0001)     ;
(PID.TID 0000.0001) PTRACERS_ref = /* Reference vertical profile */
(PID.TID 0000.0001)    35 @  0.000000000000000E+00              /* K =  1: 35 */
(PID.TID 0000.0001)     ;
(PID.TID 0000.0001) PTRACERS_EvPrRn =/* tracer conc. in Evap. & Rain */
(PID.TID 0000.0001)                 1.234567000000000E+05
(PID.TID 0000.0001)     ;
(PID.TID 0000.0001)  -----------------------------------
(PID.TID 0000.0001)  tracer number :   57
(PID.TID 0000.0001) PTRACERS_names = /* Tracer short name */
(PID.TID 0000.0001)               'BIO_4_004'
(PID.TID 0000.0001)     ;
(PID.TID 0000.0001) PTRACERS_long_names = /* Tracer long name */
(PID.TID 0000.0001)               ''
(PID.TID 0000.0001)     ;
(PID.TID 0000.0001) PTRACERS_ioLabel = /* tracer IO Label */
(PID.TID 0000.0001)               '57'
(PID.TID 0000.0001)     ;
(PID.TID 0000.0001) PTRACERS_advScheme = /* Advection Scheme */
(PID.TID 0000.0001)                      33
(PID.TID 0000.0001)     ;
(PID.TID 0000.0001) PTRACERS_SOM_Advection = /* tracer uses SOM advection scheme */
(PID.TID 0000.0001)                   F
(PID.TID 0000.0001)     ;
(PID.TID 0000.0001) PTRACERS_ImplVertAdv = /* implicit vert. advection flag */
(PID.TID 0000.0001)                   F
(PID.TID 0000.0001)     ;
(PID.TID 0000.0001) PTRACERS_diffKh = /* Laplacian Diffusivity */
(PID.TID 0000.0001)                 0.000000000000000E+00
(PID.TID 0000.0001)     ;
(PID.TID 0000.0001) PTRACERS_diffK4 = /* Biharmonic Diffusivity */
(PID.TID 0000.0001)                 0.000000000000000E+00
(PID.TID 0000.0001)     ;
(PID.TID 0000.0001) PTRACERS_diffKrNr = /* Vertical Diffusivity */
(PID.TID 0000.0001)    35 @  1.000000000000000E-05              /* K =  1: 35 */
(PID.TID 0000.0001)     ;
(PID.TID 0000.0001) PTRACERS_useGMRedi = /* apply GM-Redi */
(PID.TID 0000.0001)                   F
(PID.TID 0000.0001)     ;
(PID.TID 0000.0001) PTRACERS_useDWNSLP = /* apply DOWN-SLOPE Flow */
(PID.TID 0000.0001)                   F
(PID.TID 0000.0001)     ;
(PID.TID 0000.0001) PTRACERS_useKPP = /* apply KPP scheme */
(PID.TID 0000.0001)                   T
(PID.TID 0000.0001)     ;
(PID.TID 0000.0001) PTRACERS_ref = /* Reference vertical profile */
(PID.TID 0000.0001)    35 @  0.000000000000000E+00              /* K =  1: 35 */
(PID.TID 0000.0001)     ;
(PID.TID 0000.0001) PTRACERS_EvPrRn =/* tracer conc. in Evap. & Rain */
(PID.TID 0000.0001)                 1.234567000000000E+05
(PID.TID 0000.0001)     ;
(PID.TID 0000.0001)  -----------------------------------
(PID.TID 0000.0001)  tracer number :   58
(PID.TID 0000.0001) PTRACERS_names = /* Tracer short name */
(PID.TID 0000.0001)               'BIO_4_005'
(PID.TID 0000.0001)     ;
(PID.TID 0000.0001) PTRACERS_long_names = /* Tracer long name */
(PID.TID 0000.0001)               ''
(PID.TID 0000.0001)     ;
(PID.TID 0000.0001) PTRACERS_ioLabel = /* tracer IO Label */
(PID.TID 0000.0001)               '58'
(PID.TID 0000.0001)     ;
(PID.TID 0000.0001) PTRACERS_advScheme = /* Advection Scheme */
(PID.TID 0000.0001)                      33
(PID.TID 0000.0001)     ;
(PID.TID 0000.0001) PTRACERS_SOM_Advection = /* tracer uses SOM advection scheme */
(PID.TID 0000.0001)                   F
(PID.TID 0000.0001)     ;
(PID.TID 0000.0001) PTRACERS_ImplVertAdv = /* implicit vert. advection flag */
(PID.TID 0000.0001)                   F
(PID.TID 0000.0001)     ;
(PID.TID 0000.0001) PTRACERS_diffKh = /* Laplacian Diffusivity */
(PID.TID 0000.0001)                 0.000000000000000E+00
(PID.TID 0000.0001)     ;
(PID.TID 0000.0001) PTRACERS_diffK4 = /* Biharmonic Diffusivity */
(PID.TID 0000.0001)                 0.000000000000000E+00
(PID.TID 0000.0001)     ;
(PID.TID 0000.0001) PTRACERS_diffKrNr = /* Vertical Diffusivity */
(PID.TID 0000.0001)    35 @  1.000000000000000E-05              /* K =  1: 35 */
(PID.TID 0000.0001)     ;
(PID.TID 0000.0001) PTRACERS_useGMRedi = /* apply GM-Redi */
(PID.TID 0000.0001)                   F
(PID.TID 0000.0001)     ;
(PID.TID 0000.0001) PTRACERS_useDWNSLP = /* apply DOWN-SLOPE Flow */
(PID.TID 0000.0001)                   F
(PID.TID 0000.0001)     ;
(PID.TID 0000.0001) PTRACERS_useKPP = /* apply KPP scheme */
(PID.TID 0000.0001)                   T
(PID.TID 0000.0001)     ;
(PID.TID 0000.0001) PTRACERS_ref = /* Reference vertical profile */
(PID.TID 0000.0001)    35 @  0.000000000000000E+00              /* K =  1: 35 */
(PID.TID 0000.0001)     ;
(PID.TID 0000.0001) PTRACERS_EvPrRn =/* tracer conc. in Evap. & Rain */
(PID.TID 0000.0001)                 1.234567000000000E+05
(PID.TID 0000.0001)     ;
(PID.TID 0000.0001)  -----------------------------------
(PID.TID 0000.0001)  tracer number :   59
(PID.TID 0000.0001) PTRACERS_names = /* Tracer short name */
(PID.TID 0000.0001)               'BIO_4_006'
(PID.TID 0000.0001)     ;
(PID.TID 0000.0001) PTRACERS_long_names = /* Tracer long name */
(PID.TID 0000.0001)               ''
(PID.TID 0000.0001)     ;
(PID.TID 0000.0001) PTRACERS_ioLabel = /* tracer IO Label */
(PID.TID 0000.0001)               '59'
(PID.TID 0000.0001)     ;
(PID.TID 0000.0001) PTRACERS_advScheme = /* Advection Scheme */
(PID.TID 0000.0001)                      33
(PID.TID 0000.0001)     ;
(PID.TID 0000.0001) PTRACERS_SOM_Advection = /* tracer uses SOM advection scheme */
(PID.TID 0000.0001)                   F
(PID.TID 0000.0001)     ;
(PID.TID 0000.0001) PTRACERS_ImplVertAdv = /* implicit vert. advection flag */
(PID.TID 0000.0001)                   F
(PID.TID 0000.0001)     ;
(PID.TID 0000.0001) PTRACERS_diffKh = /* Laplacian Diffusivity */
(PID.TID 0000.0001)                 0.000000000000000E+00
(PID.TID 0000.0001)     ;
(PID.TID 0000.0001) PTRACERS_diffK4 = /* Biharmonic Diffusivity */
(PID.TID 0000.0001)                 0.000000000000000E+00
(PID.TID 0000.0001)     ;
(PID.TID 0000.0001) PTRACERS_diffKrNr = /* Vertical Diffusivity */
(PID.TID 0000.0001)    35 @  1.000000000000000E-05              /* K =  1: 35 */
(PID.TID 0000.0001)     ;
(PID.TID 0000.0001) PTRACERS_useGMRedi = /* apply GM-Redi */
(PID.TID 0000.0001)                   F
(PID.TID 0000.0001)     ;
(PID.TID 0000.0001) PTRACERS_useDWNSLP = /* apply DOWN-SLOPE Flow */
(PID.TID 0000.0001)                   F
(PID.TID 0000.0001)     ;
(PID.TID 0000.0001) PTRACERS_useKPP = /* apply KPP scheme */
(PID.TID 0000.0001)                   T
(PID.TID 0000.0001)     ;
(PID.TID 0000.0001) PTRACERS_ref = /* Reference vertical profile */
(PID.TID 0000.0001)    35 @  0.000000000000000E+00              /* K =  1: 35 */
(PID.TID 0000.0001)     ;
(PID.TID 0000.0001) PTRACERS_EvPrRn =/* tracer conc. in Evap. & Rain */
(PID.TID 0000.0001)                 1.234567000000000E+05
(PID.TID 0000.0001)     ;
(PID.TID 0000.0001)  -----------------------------------
(PID.TID 0000.0001)  tracer number :   60
(PID.TID 0000.0001) PTRACERS_names = /* Tracer short name */
(PID.TID 0000.0001)               'BIO_4_007'
(PID.TID 0000.0001)     ;
(PID.TID 0000.0001) PTRACERS_long_names = /* Tracer long name */
(PID.TID 0000.0001)               ''
(PID.TID 0000.0001)     ;
(PID.TID 0000.0001) PTRACERS_ioLabel = /* tracer IO Label */
(PID.TID 0000.0001)               '60'
(PID.TID 0000.0001)     ;
(PID.TID 0000.0001) PTRACERS_advScheme = /* Advection Scheme */
(PID.TID 0000.0001)                      33
(PID.TID 0000.0001)     ;
(PID.TID 0000.0001) PTRACERS_SOM_Advection = /* tracer uses SOM advection scheme */
(PID.TID 0000.0001)                   F
(PID.TID 0000.0001)     ;
(PID.TID 0000.0001) PTRACERS_ImplVertAdv = /* implicit vert. advection flag */
(PID.TID 0000.0001)                   F
(PID.TID 0000.0001)     ;
(PID.TID 0000.0001) PTRACERS_diffKh = /* Laplacian Diffusivity */
(PID.TID 0000.0001)                 0.000000000000000E+00
(PID.TID 0000.0001)     ;
(PID.TID 0000.0001) PTRACERS_diffK4 = /* Biharmonic Diffusivity */
(PID.TID 0000.0001)                 0.000000000000000E+00
(PID.TID 0000.0001)     ;
(PID.TID 0000.0001) PTRACERS_diffKrNr = /* Vertical Diffusivity */
(PID.TID 0000.0001)    35 @  1.000000000000000E-05              /* K =  1: 35 */
(PID.TID 0000.0001)     ;
(PID.TID 0000.0001) PTRACERS_useGMRedi = /* apply GM-Redi */
(PID.TID 0000.0001)                   F
(PID.TID 0000.0001)     ;
(PID.TID 0000.0001) PTRACERS_useDWNSLP = /* apply DOWN-SLOPE Flow */
(PID.TID 0000.0001)                   F
(PID.TID 0000.0001)     ;
(PID.TID 0000.0001) PTRACERS_useKPP = /* apply KPP scheme */
(PID.TID 0000.0001)                   T
(PID.TID 0000.0001)     ;
(PID.TID 0000.0001) PTRACERS_ref = /* Reference vertical profile */
(PID.TID 0000.0001)    35 @  0.000000000000000E+00              /* K =  1: 35 */
(PID.TID 0000.0001)     ;
(PID.TID 0000.0001) PTRACERS_EvPrRn =/* tracer conc. in Evap. & Rain */
(PID.TID 0000.0001)                 1.234567000000000E+05
(PID.TID 0000.0001)     ;
(PID.TID 0000.0001)  -----------------------------------
(PID.TID 0000.0001)  tracer number :   61
(PID.TID 0000.0001) PTRACERS_names = /* Tracer short name */
(PID.TID 0000.0001)               'BIO_4_008'
(PID.TID 0000.0001)     ;
(PID.TID 0000.0001) PTRACERS_long_names = /* Tracer long name */
(PID.TID 0000.0001)               ''
(PID.TID 0000.0001)     ;
(PID.TID 0000.0001) PTRACERS_ioLabel = /* tracer IO Label */
(PID.TID 0000.0001)               '61'
(PID.TID 0000.0001)     ;
(PID.TID 0000.0001) PTRACERS_advScheme = /* Advection Scheme */
(PID.TID 0000.0001)                      33
(PID.TID 0000.0001)     ;
(PID.TID 0000.0001) PTRACERS_SOM_Advection = /* tracer uses SOM advection scheme */
(PID.TID 0000.0001)                   F
(PID.TID 0000.0001)     ;
(PID.TID 0000.0001) PTRACERS_ImplVertAdv = /* implicit vert. advection flag */
(PID.TID 0000.0001)                   F
(PID.TID 0000.0001)     ;
(PID.TID 0000.0001) PTRACERS_diffKh = /* Laplacian Diffusivity */
(PID.TID 0000.0001)                 0.000000000000000E+00
(PID.TID 0000.0001)     ;
(PID.TID 0000.0001) PTRACERS_diffK4 = /* Biharmonic Diffusivity */
(PID.TID 0000.0001)                 0.000000000000000E+00
(PID.TID 0000.0001)     ;
(PID.TID 0000.0001) PTRACERS_diffKrNr = /* Vertical Diffusivity */
(PID.TID 0000.0001)    35 @  1.000000000000000E-05              /* K =  1: 35 */
(PID.TID 0000.0001)     ;
(PID.TID 0000.0001) PTRACERS_useGMRedi = /* apply GM-Redi */
(PID.TID 0000.0001)                   F
(PID.TID 0000.0001)     ;
(PID.TID 0000.0001) PTRACERS_useDWNSLP = /* apply DOWN-SLOPE Flow */
(PID.TID 0000.0001)                   F
(PID.TID 0000.0001)     ;
(PID.TID 0000.0001) PTRACERS_useKPP = /* apply KPP scheme */
(PID.TID 0000.0001)                   T
(PID.TID 0000.0001)     ;
(PID.TID 0000.0001) PTRACERS_ref = /* Reference vertical profile */
(PID.TID 0000.0001)    35 @  0.000000000000000E+00              /* K =  1: 35 */
(PID.TID 0000.0001)     ;
(PID.TID 0000.0001) PTRACERS_EvPrRn =/* tracer conc. in Evap. & Rain */
(PID.TID 0000.0001)                 1.234567000000000E+05
(PID.TID 0000.0001)     ;
(PID.TID 0000.0001)  -----------------------------------
(PID.TID 0000.0001)  tracer number :   62
(PID.TID 0000.0001) PTRACERS_names = /* Tracer short name */
(PID.TID 0000.0001)               'BIO_4_009'
(PID.TID 0000.0001)     ;
(PID.TID 0000.0001) PTRACERS_long_names = /* Tracer long name */
(PID.TID 0000.0001)               ''
(PID.TID 0000.0001)     ;
(PID.TID 0000.0001) PTRACERS_ioLabel = /* tracer IO Label */
(PID.TID 0000.0001)               '62'
(PID.TID 0000.0001)     ;
(PID.TID 0000.0001) PTRACERS_advScheme = /* Advection Scheme */
(PID.TID 0000.0001)                      33
(PID.TID 0000.0001)     ;
(PID.TID 0000.0001) PTRACERS_SOM_Advection = /* tracer uses SOM advection scheme */
(PID.TID 0000.0001)                   F
(PID.TID 0000.0001)     ;
(PID.TID 0000.0001) PTRACERS_ImplVertAdv = /* implicit vert. advection flag */
(PID.TID 0000.0001)                   F
(PID.TID 0000.0001)     ;
(PID.TID 0000.0001) PTRACERS_diffKh = /* Laplacian Diffusivity */
(PID.TID 0000.0001)                 0.000000000000000E+00
(PID.TID 0000.0001)     ;
(PID.TID 0000.0001) PTRACERS_diffK4 = /* Biharmonic Diffusivity */
(PID.TID 0000.0001)                 0.000000000000000E+00
(PID.TID 0000.0001)     ;
(PID.TID 0000.0001) PTRACERS_diffKrNr = /* Vertical Diffusivity */
(PID.TID 0000.0001)    35 @  1.000000000000000E-05              /* K =  1: 35 */
(PID.TID 0000.0001)     ;
(PID.TID 0000.0001) PTRACERS_useGMRedi = /* apply GM-Redi */
(PID.TID 0000.0001)                   F
(PID.TID 0000.0001)     ;
(PID.TID 0000.0001) PTRACERS_useDWNSLP = /* apply DOWN-SLOPE Flow */
(PID.TID 0000.0001)                   F
(PID.TID 0000.0001)     ;
(PID.TID 0000.0001) PTRACERS_useKPP = /* apply KPP scheme */
(PID.TID 0000.0001)                   T
(PID.TID 0000.0001)     ;
(PID.TID 0000.0001) PTRACERS_ref = /* Reference vertical profile */
(PID.TID 0000.0001)    35 @  0.000000000000000E+00              /* K =  1: 35 */
(PID.TID 0000.0001)     ;
(PID.TID 0000.0001) PTRACERS_EvPrRn =/* tracer conc. in Evap. & Rain */
(PID.TID 0000.0001)                 1.234567000000000E+05
(PID.TID 0000.0001)     ;
(PID.TID 0000.0001)  -----------------------------------
(PID.TID 0000.0001)  tracer number :   63
(PID.TID 0000.0001) PTRACERS_names = /* Tracer short name */
(PID.TID 0000.0001)               'BIO_4_010'
(PID.TID 0000.0001)     ;
(PID.TID 0000.0001) PTRACERS_long_names = /* Tracer long name */
(PID.TID 0000.0001)               ''
(PID.TID 0000.0001)     ;
(PID.TID 0000.0001) PTRACERS_ioLabel = /* tracer IO Label */
(PID.TID 0000.0001)               '63'
(PID.TID 0000.0001)     ;
(PID.TID 0000.0001) PTRACERS_advScheme = /* Advection Scheme */
(PID.TID 0000.0001)                      33
(PID.TID 0000.0001)     ;
(PID.TID 0000.0001) PTRACERS_SOM_Advection = /* tracer uses SOM advection scheme */
(PID.TID 0000.0001)                   F
(PID.TID 0000.0001)     ;
(PID.TID 0000.0001) PTRACERS_ImplVertAdv = /* implicit vert. advection flag */
(PID.TID 0000.0001)                   F
(PID.TID 0000.0001)     ;
(PID.TID 0000.0001) PTRACERS_diffKh = /* Laplacian Diffusivity */
(PID.TID 0000.0001)                 0.000000000000000E+00
(PID.TID 0000.0001)     ;
(PID.TID 0000.0001) PTRACERS_diffK4 = /* Biharmonic Diffusivity */
(PID.TID 0000.0001)                 0.000000000000000E+00
(PID.TID 0000.0001)     ;
(PID.TID 0000.0001) PTRACERS_diffKrNr = /* Vertical Diffusivity */
(PID.TID 0000.0001)    35 @  1.000000000000000E-05              /* K =  1: 35 */
(PID.TID 0000.0001)     ;
(PID.TID 0000.0001) PTRACERS_useGMRedi = /* apply GM-Redi */
(PID.TID 0000.0001)                   F
(PID.TID 0000.0001)     ;
(PID.TID 0000.0001) PTRACERS_useDWNSLP = /* apply DOWN-SLOPE Flow */
(PID.TID 0000.0001)                   F
(PID.TID 0000.0001)     ;
(PID.TID 0000.0001) PTRACERS_useKPP = /* apply KPP scheme */
(PID.TID 0000.0001)                   T
(PID.TID 0000.0001)     ;
(PID.TID 0000.0001) PTRACERS_ref = /* Reference vertical profile */
(PID.TID 0000.0001)    35 @  0.000000000000000E+00              /* K =  1: 35 */
(PID.TID 0000.0001)     ;
(PID.TID 0000.0001) PTRACERS_EvPrRn =/* tracer conc. in Evap. & Rain */
(PID.TID 0000.0001)                 1.234567000000000E+05
(PID.TID 0000.0001)     ;
(PID.TID 0000.0001)  -----------------------------------
(PID.TID 0000.0001)  tracer number :   64
(PID.TID 0000.0001) PTRACERS_names = /* Tracer short name */
(PID.TID 0000.0001)               'BIO_4_011'
(PID.TID 0000.0001)     ;
(PID.TID 0000.0001) PTRACERS_long_names = /* Tracer long name */
(PID.TID 0000.0001)               ''
(PID.TID 0000.0001)     ;
(PID.TID 0000.0001) PTRACERS_ioLabel = /* tracer IO Label */
(PID.TID 0000.0001)               '64'
(PID.TID 0000.0001)     ;
(PID.TID 0000.0001) PTRACERS_advScheme = /* Advection Scheme */
(PID.TID 0000.0001)                      33
(PID.TID 0000.0001)     ;
(PID.TID 0000.0001) PTRACERS_SOM_Advection = /* tracer uses SOM advection scheme */
(PID.TID 0000.0001)                   F
(PID.TID 0000.0001)     ;
(PID.TID 0000.0001) PTRACERS_ImplVertAdv = /* implicit vert. advection flag */
(PID.TID 0000.0001)                   F
(PID.TID 0000.0001)     ;
(PID.TID 0000.0001) PTRACERS_diffKh = /* Laplacian Diffusivity */
(PID.TID 0000.0001)                 0.000000000000000E+00
(PID.TID 0000.0001)     ;
(PID.TID 0000.0001) PTRACERS_diffK4 = /* Biharmonic Diffusivity */
(PID.TID 0000.0001)                 0.000000000000000E+00
(PID.TID 0000.0001)     ;
(PID.TID 0000.0001) PTRACERS_diffKrNr = /* Vertical Diffusivity */
(PID.TID 0000.0001)    35 @  1.000000000000000E-05              /* K =  1: 35 */
(PID.TID 0000.0001)     ;
(PID.TID 0000.0001) PTRACERS_useGMRedi = /* apply GM-Redi */
(PID.TID 0000.0001)                   F
(PID.TID 0000.0001)     ;
(PID.TID 0000.0001) PTRACERS_useDWNSLP = /* apply DOWN-SLOPE Flow */
(PID.TID 0000.0001)                   F
(PID.TID 0000.0001)     ;
(PID.TID 0000.0001) PTRACERS_useKPP = /* apply KPP scheme */
(PID.TID 0000.0001)                   T
(PID.TID 0000.0001)     ;
(PID.TID 0000.0001) PTRACERS_ref = /* Reference vertical profile */
(PID.TID 0000.0001)    35 @  0.000000000000000E+00              /* K =  1: 35 */
(PID.TID 0000.0001)     ;
(PID.TID 0000.0001) PTRACERS_EvPrRn =/* tracer conc. in Evap. & Rain */
(PID.TID 0000.0001)                 1.234567000000000E+05
(PID.TID 0000.0001)     ;
(PID.TID 0000.0001)  -----------------------------------
(PID.TID 0000.0001)  tracer number :   65
(PID.TID 0000.0001) PTRACERS_names = /* Tracer short name */
(PID.TID 0000.0001)               'BIO_4_012'
(PID.TID 0000.0001)     ;
(PID.TID 0000.0001) PTRACERS_long_names = /* Tracer long name */
(PID.TID 0000.0001)               ''
(PID.TID 0000.0001)     ;
(PID.TID 0000.0001) PTRACERS_ioLabel = /* tracer IO Label */
(PID.TID 0000.0001)               '65'
(PID.TID 0000.0001)     ;
(PID.TID 0000.0001) PTRACERS_advScheme = /* Advection Scheme */
(PID.TID 0000.0001)                      33
(PID.TID 0000.0001)     ;
(PID.TID 0000.0001) PTRACERS_SOM_Advection = /* tracer uses SOM advection scheme */
(PID.TID 0000.0001)                   F
(PID.TID 0000.0001)     ;
(PID.TID 0000.0001) PTRACERS_ImplVertAdv = /* implicit vert. advection flag */
(PID.TID 0000.0001)                   F
(PID.TID 0000.0001)     ;
(PID.TID 0000.0001) PTRACERS_diffKh = /* Laplacian Diffusivity */
(PID.TID 0000.0001)                 0.000000000000000E+00
(PID.TID 0000.0001)     ;
(PID.TID 0000.0001) PTRACERS_diffK4 = /* Biharmonic Diffusivity */
(PID.TID 0000.0001)                 0.000000000000000E+00
(PID.TID 0000.0001)     ;
(PID.TID 0000.0001) PTRACERS_diffKrNr = /* Vertical Diffusivity */
(PID.TID 0000.0001)    35 @  1.000000000000000E-05              /* K =  1: 35 */
(PID.TID 0000.0001)     ;
(PID.TID 0000.0001) PTRACERS_useGMRedi = /* apply GM-Redi */
(PID.TID 0000.0001)                   F
(PID.TID 0000.0001)     ;
(PID.TID 0000.0001) PTRACERS_useDWNSLP = /* apply DOWN-SLOPE Flow */
(PID.TID 0000.0001)                   F
(PID.TID 0000.0001)     ;
(PID.TID 0000.0001) PTRACERS_useKPP = /* apply KPP scheme */
(PID.TID 0000.0001)                   T
(PID.TID 0000.0001)     ;
(PID.TID 0000.0001) PTRACERS_ref = /* Reference vertical profile */
(PID.TID 0000.0001)    35 @  0.000000000000000E+00              /* K =  1: 35 */
(PID.TID 0000.0001)     ;
(PID.TID 0000.0001) PTRACERS_EvPrRn =/* tracer conc. in Evap. & Rain */
(PID.TID 0000.0001)                 1.234567000000000E+05
(PID.TID 0000.0001)     ;
(PID.TID 0000.0001)  -----------------------------------
(PID.TID 0000.0001)  tracer number :   66
(PID.TID 0000.0001) PTRACERS_names = /* Tracer short name */
(PID.TID 0000.0001)               'BIO_4_013'
(PID.TID 0000.0001)     ;
(PID.TID 0000.0001) PTRACERS_long_names = /* Tracer long name */
(PID.TID 0000.0001)               ''
(PID.TID 0000.0001)     ;
(PID.TID 0000.0001) PTRACERS_ioLabel = /* tracer IO Label */
(PID.TID 0000.0001)               '66'
(PID.TID 0000.0001)     ;
(PID.TID 0000.0001) PTRACERS_advScheme = /* Advection Scheme */
(PID.TID 0000.0001)                      33
(PID.TID 0000.0001)     ;
(PID.TID 0000.0001) PTRACERS_SOM_Advection = /* tracer uses SOM advection scheme */
(PID.TID 0000.0001)                   F
(PID.TID 0000.0001)     ;
(PID.TID 0000.0001) PTRACERS_ImplVertAdv = /* implicit vert. advection flag */
(PID.TID 0000.0001)                   F
(PID.TID 0000.0001)     ;
(PID.TID 0000.0001) PTRACERS_diffKh = /* Laplacian Diffusivity */
(PID.TID 0000.0001)                 0.000000000000000E+00
(PID.TID 0000.0001)     ;
(PID.TID 0000.0001) PTRACERS_diffK4 = /* Biharmonic Diffusivity */
(PID.TID 0000.0001)                 0.000000000000000E+00
(PID.TID 0000.0001)     ;
(PID.TID 0000.0001) PTRACERS_diffKrNr = /* Vertical Diffusivity */
(PID.TID 0000.0001)    35 @  1.000000000000000E-05              /* K =  1: 35 */
(PID.TID 0000.0001)     ;
(PID.TID 0000.0001) PTRACERS_useGMRedi = /* apply GM-Redi */
(PID.TID 0000.0001)                   F
(PID.TID 0000.0001)     ;
(PID.TID 0000.0001) PTRACERS_useDWNSLP = /* apply DOWN-SLOPE Flow */
(PID.TID 0000.0001)                   F
(PID.TID 0000.0001)     ;
(PID.TID 0000.0001) PTRACERS_useKPP = /* apply KPP scheme */
(PID.TID 0000.0001)                   T
(PID.TID 0000.0001)     ;
(PID.TID 0000.0001) PTRACERS_ref = /* Reference vertical profile */
(PID.TID 0000.0001)    35 @  0.000000000000000E+00              /* K =  1: 35 */
(PID.TID 0000.0001)     ;
(PID.TID 0000.0001) PTRACERS_EvPrRn =/* tracer conc. in Evap. & Rain */
(PID.TID 0000.0001)                 1.234567000000000E+05
(PID.TID 0000.0001)     ;
(PID.TID 0000.0001)  -----------------------------------
(PID.TID 0000.0001)  tracer number :   67
(PID.TID 0000.0001) PTRACERS_names = /* Tracer short name */
(PID.TID 0000.0001)               'BIO_4_014'
(PID.TID 0000.0001)     ;
(PID.TID 0000.0001) PTRACERS_long_names = /* Tracer long name */
(PID.TID 0000.0001)               ''
(PID.TID 0000.0001)     ;
(PID.TID 0000.0001) PTRACERS_ioLabel = /* tracer IO Label */
(PID.TID 0000.0001)               '67'
(PID.TID 0000.0001)     ;
(PID.TID 0000.0001) PTRACERS_advScheme = /* Advection Scheme */
(PID.TID 0000.0001)                      33
(PID.TID 0000.0001)     ;
(PID.TID 0000.0001) PTRACERS_SOM_Advection = /* tracer uses SOM advection scheme */
(PID.TID 0000.0001)                   F
(PID.TID 0000.0001)     ;
(PID.TID 0000.0001) PTRACERS_ImplVertAdv = /* implicit vert. advection flag */
(PID.TID 0000.0001)                   F
(PID.TID 0000.0001)     ;
(PID.TID 0000.0001) PTRACERS_diffKh = /* Laplacian Diffusivity */
(PID.TID 0000.0001)                 0.000000000000000E+00
(PID.TID 0000.0001)     ;
(PID.TID 0000.0001) PTRACERS_diffK4 = /* Biharmonic Diffusivity */
(PID.TID 0000.0001)                 0.000000000000000E+00
(PID.TID 0000.0001)     ;
(PID.TID 0000.0001) PTRACERS_diffKrNr = /* Vertical Diffusivity */
(PID.TID 0000.0001)    35 @  1.000000000000000E-05              /* K =  1: 35 */
(PID.TID 0000.0001)     ;
(PID.TID 0000.0001) PTRACERS_useGMRedi = /* apply GM-Redi */
(PID.TID 0000.0001)                   F
(PID.TID 0000.0001)     ;
(PID.TID 0000.0001) PTRACERS_useDWNSLP = /* apply DOWN-SLOPE Flow */
(PID.TID 0000.0001)                   F
(PID.TID 0000.0001)     ;
(PID.TID 0000.0001) PTRACERS_useKPP = /* apply KPP scheme */
(PID.TID 0000.0001)                   T
(PID.TID 0000.0001)     ;
(PID.TID 0000.0001) PTRACERS_ref = /* Reference vertical profile */
(PID.TID 0000.0001)    35 @  0.000000000000000E+00              /* K =  1: 35 */
(PID.TID 0000.0001)     ;
(PID.TID 0000.0001) PTRACERS_EvPrRn =/* tracer conc. in Evap. & Rain */
(PID.TID 0000.0001)                 1.234567000000000E+05
(PID.TID 0000.0001)     ;
(PID.TID 0000.0001)  -----------------------------------
(PID.TID 0000.0001)  tracer number :   68
(PID.TID 0000.0001) PTRACERS_names = /* Tracer short name */
(PID.TID 0000.0001)               'BIO_4_015'
(PID.TID 0000.0001)     ;
(PID.TID 0000.0001) PTRACERS_long_names = /* Tracer long name */
(PID.TID 0000.0001)               ''
(PID.TID 0000.0001)     ;
(PID.TID 0000.0001) PTRACERS_ioLabel = /* tracer IO Label */
(PID.TID 0000.0001)               '68'
(PID.TID 0000.0001)     ;
(PID.TID 0000.0001) PTRACERS_advScheme = /* Advection Scheme */
(PID.TID 0000.0001)                      33
(PID.TID 0000.0001)     ;
(PID.TID 0000.0001) PTRACERS_SOM_Advection = /* tracer uses SOM advection scheme */
(PID.TID 0000.0001)                   F
(PID.TID 0000.0001)     ;
(PID.TID 0000.0001) PTRACERS_ImplVertAdv = /* implicit vert. advection flag */
(PID.TID 0000.0001)                   F
(PID.TID 0000.0001)     ;
(PID.TID 0000.0001) PTRACERS_diffKh = /* Laplacian Diffusivity */
(PID.TID 0000.0001)                 0.000000000000000E+00
(PID.TID 0000.0001)     ;
(PID.TID 0000.0001) PTRACERS_diffK4 = /* Biharmonic Diffusivity */
(PID.TID 0000.0001)                 0.000000000000000E+00
(PID.TID 0000.0001)     ;
(PID.TID 0000.0001) PTRACERS_diffKrNr = /* Vertical Diffusivity */
(PID.TID 0000.0001)    35 @  1.000000000000000E-05              /* K =  1: 35 */
(PID.TID 0000.0001)     ;
(PID.TID 0000.0001) PTRACERS_useGMRedi = /* apply GM-Redi */
(PID.TID 0000.0001)                   F
(PID.TID 0000.0001)     ;
(PID.TID 0000.0001) PTRACERS_useDWNSLP = /* apply DOWN-SLOPE Flow */
(PID.TID 0000.0001)                   F
(PID.TID 0000.0001)     ;
(PID.TID 0000.0001) PTRACERS_useKPP = /* apply KPP scheme */
(PID.TID 0000.0001)                   T
(PID.TID 0000.0001)     ;
(PID.TID 0000.0001) PTRACERS_ref = /* Reference vertical profile */
(PID.TID 0000.0001)    35 @  0.000000000000000E+00              /* K =  1: 35 */
(PID.TID 0000.0001)     ;
(PID.TID 0000.0001) PTRACERS_EvPrRn =/* tracer conc. in Evap. & Rain */
(PID.TID 0000.0001)                 1.234567000000000E+05
(PID.TID 0000.0001)     ;
(PID.TID 0000.0001)  -----------------------------------
(PID.TID 0000.0001)  tracer number :   69
(PID.TID 0000.0001) PTRACERS_names = /* Tracer short name */
(PID.TID 0000.0001)               'OM_1_1'
(PID.TID 0000.0001)     ;
(PID.TID 0000.0001) PTRACERS_long_names = /* Tracer long name */
(PID.TID 0000.0001)               ''
(PID.TID 0000.0001)     ;
(PID.TID 0000.0001) PTRACERS_ioLabel = /* tracer IO Label */
(PID.TID 0000.0001)               '69'
(PID.TID 0000.0001)     ;
(PID.TID 0000.0001) PTRACERS_advScheme = /* Advection Scheme */
(PID.TID 0000.0001)                      33
(PID.TID 0000.0001)     ;
(PID.TID 0000.0001) PTRACERS_SOM_Advection = /* tracer uses SOM advection scheme */
(PID.TID 0000.0001)                   F
(PID.TID 0000.0001)     ;
(PID.TID 0000.0001) PTRACERS_ImplVertAdv = /* implicit vert. advection flag */
(PID.TID 0000.0001)                   F
(PID.TID 0000.0001)     ;
(PID.TID 0000.0001) PTRACERS_diffKh = /* Laplacian Diffusivity */
(PID.TID 0000.0001)                 0.000000000000000E+00
(PID.TID 0000.0001)     ;
(PID.TID 0000.0001) PTRACERS_diffK4 = /* Biharmonic Diffusivity */
(PID.TID 0000.0001)                 0.000000000000000E+00
(PID.TID 0000.0001)     ;
(PID.TID 0000.0001) PTRACERS_diffKrNr = /* Vertical Diffusivity */
(PID.TID 0000.0001)    35 @  1.000000000000000E-05              /* K =  1: 35 */
(PID.TID 0000.0001)     ;
(PID.TID 0000.0001) PTRACERS_useGMRedi = /* apply GM-Redi */
(PID.TID 0000.0001)                   F
(PID.TID 0000.0001)     ;
(PID.TID 0000.0001) PTRACERS_useDWNSLP = /* apply DOWN-SLOPE Flow */
(PID.TID 0000.0001)                   F
(PID.TID 0000.0001)     ;
(PID.TID 0000.0001) PTRACERS_useKPP = /* apply KPP scheme */
(PID.TID 0000.0001)                   T
(PID.TID 0000.0001)     ;
(PID.TID 0000.0001) PTRACERS_ref = /* Reference vertical profile */
(PID.TID 0000.0001)    35 @  0.000000000000000E+00              /* K =  1: 35 */
(PID.TID 0000.0001)     ;
(PID.TID 0000.0001) PTRACERS_EvPrRn =/* tracer conc. in Evap. & Rain */
(PID.TID 0000.0001)                 1.234567000000000E+05
(PID.TID 0000.0001)     ;
(PID.TID 0000.0001)  -----------------------------------
(PID.TID 0000.0001)  tracer number :   70
(PID.TID 0000.0001) PTRACERS_names = /* Tracer short name */
(PID.TID 0000.0001)               'OM_1_2'
(PID.TID 0000.0001)     ;
(PID.TID 0000.0001) PTRACERS_long_names = /* Tracer long name */
(PID.TID 0000.0001)               ''
(PID.TID 0000.0001)     ;
(PID.TID 0000.0001) PTRACERS_ioLabel = /* tracer IO Label */
(PID.TID 0000.0001)               '70'
(PID.TID 0000.0001)     ;
(PID.TID 0000.0001) PTRACERS_advScheme = /* Advection Scheme */
(PID.TID 0000.0001)                      33
(PID.TID 0000.0001)     ;
(PID.TID 0000.0001) PTRACERS_SOM_Advection = /* tracer uses SOM advection scheme */
(PID.TID 0000.0001)                   F
(PID.TID 0000.0001)     ;
(PID.TID 0000.0001) PTRACERS_ImplVertAdv = /* implicit vert. advection flag */
(PID.TID 0000.0001)                   F
(PID.TID 0000.0001)     ;
(PID.TID 0000.0001) PTRACERS_diffKh = /* Laplacian Diffusivity */
(PID.TID 0000.0001)                 0.000000000000000E+00
(PID.TID 0000.0001)     ;
(PID.TID 0000.0001) PTRACERS_diffK4 = /* Biharmonic Diffusivity */
(PID.TID 0000.0001)                 0.000000000000000E+00
(PID.TID 0000.0001)     ;
(PID.TID 0000.0001) PTRACERS_diffKrNr = /* Vertical Diffusivity */
(PID.TID 0000.0001)    35 @  1.000000000000000E-05              /* K =  1: 35 */
(PID.TID 0000.0001)     ;
(PID.TID 0000.0001) PTRACERS_useGMRedi = /* apply GM-Redi */
(PID.TID 0000.0001)                   F
(PID.TID 0000.0001)     ;
(PID.TID 0000.0001) PTRACERS_useDWNSLP = /* apply DOWN-SLOPE Flow */
(PID.TID 0000.0001)                   F
(PID.TID 0000.0001)     ;
(PID.TID 0000.0001) PTRACERS_useKPP = /* apply KPP scheme */
(PID.TID 0000.0001)                   T
(PID.TID 0000.0001)     ;
(PID.TID 0000.0001) PTRACERS_ref = /* Reference vertical profile */
(PID.TID 0000.0001)    35 @  0.000000000000000E+00              /* K =  1: 35 */
(PID.TID 0000.0001)     ;
(PID.TID 0000.0001) PTRACERS_EvPrRn =/* tracer conc. in Evap. & Rain */
(PID.TID 0000.0001)                 1.234567000000000E+05
(PID.TID 0000.0001)     ;
(PID.TID 0000.0001)  -----------------------------------
(PID.TID 0000.0001)  tracer number :   71
(PID.TID 0000.0001) PTRACERS_names = /* Tracer short name */
(PID.TID 0000.0001)               'OM_2_1'
(PID.TID 0000.0001)     ;
(PID.TID 0000.0001) PTRACERS_long_names = /* Tracer long name */
(PID.TID 0000.0001)               ''
(PID.TID 0000.0001)     ;
(PID.TID 0000.0001) PTRACERS_ioLabel = /* tracer IO Label */
(PID.TID 0000.0001)               '71'
(PID.TID 0000.0001)     ;
(PID.TID 0000.0001) PTRACERS_advScheme = /* Advection Scheme */
(PID.TID 0000.0001)                      33
(PID.TID 0000.0001)     ;
(PID.TID 0000.0001) PTRACERS_SOM_Advection = /* tracer uses SOM advection scheme */
(PID.TID 0000.0001)                   F
(PID.TID 0000.0001)     ;
(PID.TID 0000.0001) PTRACERS_ImplVertAdv = /* implicit vert. advection flag */
(PID.TID 0000.0001)                   F
(PID.TID 0000.0001)     ;
(PID.TID 0000.0001) PTRACERS_diffKh = /* Laplacian Diffusivity */
(PID.TID 0000.0001)                 0.000000000000000E+00
(PID.TID 0000.0001)     ;
(PID.TID 0000.0001) PTRACERS_diffK4 = /* Biharmonic Diffusivity */
(PID.TID 0000.0001)                 0.000000000000000E+00
(PID.TID 0000.0001)     ;
(PID.TID 0000.0001) PTRACERS_diffKrNr = /* Vertical Diffusivity */
(PID.TID 0000.0001)    35 @  1.000000000000000E-05              /* K =  1: 35 */
(PID.TID 0000.0001)     ;
(PID.TID 0000.0001) PTRACERS_useGMRedi = /* apply GM-Redi */
(PID.TID 0000.0001)                   F
(PID.TID 0000.0001)     ;
(PID.TID 0000.0001) PTRACERS_useDWNSLP = /* apply DOWN-SLOPE Flow */
(PID.TID 0000.0001)                   F
(PID.TID 0000.0001)     ;
(PID.TID 0000.0001) PTRACERS_useKPP = /* apply KPP scheme */
(PID.TID 0000.0001)                   T
(PID.TID 0000.0001)     ;
(PID.TID 0000.0001) PTRACERS_ref = /* Reference vertical profile */
(PID.TID 0000.0001)    35 @  0.000000000000000E+00              /* K =  1: 35 */
(PID.TID 0000.0001)     ;
(PID.TID 0000.0001) PTRACERS_EvPrRn =/* tracer conc. in Evap. & Rain */
(PID.TID 0000.0001)                 1.234567000000000E+05
(PID.TID 0000.0001)     ;
(PID.TID 0000.0001)  -----------------------------------
(PID.TID 0000.0001)  tracer number :   72
(PID.TID 0000.0001) PTRACERS_names = /* Tracer short name */
(PID.TID 0000.0001)               'OM_2_2'
(PID.TID 0000.0001)     ;
(PID.TID 0000.0001) PTRACERS_long_names = /* Tracer long name */
(PID.TID 0000.0001)               ''
(PID.TID 0000.0001)     ;
(PID.TID 0000.0001) PTRACERS_ioLabel = /* tracer IO Label */
(PID.TID 0000.0001)               '72'
(PID.TID 0000.0001)     ;
(PID.TID 0000.0001) PTRACERS_advScheme = /* Advection Scheme */
(PID.TID 0000.0001)                      33
(PID.TID 0000.0001)     ;
(PID.TID 0000.0001) PTRACERS_SOM_Advection = /* tracer uses SOM advection scheme */
(PID.TID 0000.0001)                   F
(PID.TID 0000.0001)     ;
(PID.TID 0000.0001) PTRACERS_ImplVertAdv = /* implicit vert. advection flag */
(PID.TID 0000.0001)                   F
(PID.TID 0000.0001)     ;
(PID.TID 0000.0001) PTRACERS_diffKh = /* Laplacian Diffusivity */
(PID.TID 0000.0001)                 0.000000000000000E+00
(PID.TID 0000.0001)     ;
(PID.TID 0000.0001) PTRACERS_diffK4 = /* Biharmonic Diffusivity */
(PID.TID 0000.0001)                 0.000000000000000E+00
(PID.TID 0000.0001)     ;
(PID.TID 0000.0001) PTRACERS_diffKrNr = /* Vertical Diffusivity */
(PID.TID 0000.0001)    35 @  1.000000000000000E-05              /* K =  1: 35 */
(PID.TID 0000.0001)     ;
(PID.TID 0000.0001) PTRACERS_useGMRedi = /* apply GM-Redi */
(PID.TID 0000.0001)                   F
(PID.TID 0000.0001)     ;
(PID.TID 0000.0001) PTRACERS_useDWNSLP = /* apply DOWN-SLOPE Flow */
(PID.TID 0000.0001)                   F
(PID.TID 0000.0001)     ;
(PID.TID 0000.0001) PTRACERS_useKPP = /* apply KPP scheme */
(PID.TID 0000.0001)                   T
(PID.TID 0000.0001)     ;
(PID.TID 0000.0001) PTRACERS_ref = /* Reference vertical profile */
(PID.TID 0000.0001)    35 @  0.000000000000000E+00              /* K =  1: 35 */
(PID.TID 0000.0001)     ;
(PID.TID 0000.0001) PTRACERS_EvPrRn =/* tracer conc. in Evap. & Rain */
(PID.TID 0000.0001)                 1.234567000000000E+05
(PID.TID 0000.0001)     ;
(PID.TID 0000.0001)  -----------------------------------
(PID.TID 0000.0001)  tracer number :   73
(PID.TID 0000.0001) PTRACERS_names = /* Tracer short name */
(PID.TID 0000.0001)               'OM_3_1'
(PID.TID 0000.0001)     ;
(PID.TID 0000.0001) PTRACERS_long_names = /* Tracer long name */
(PID.TID 0000.0001)               ''
(PID.TID 0000.0001)     ;
(PID.TID 0000.0001) PTRACERS_ioLabel = /* tracer IO Label */
(PID.TID 0000.0001)               '73'
(PID.TID 0000.0001)     ;
(PID.TID 0000.0001) PTRACERS_advScheme = /* Advection Scheme */
(PID.TID 0000.0001)                      33
(PID.TID 0000.0001)     ;
(PID.TID 0000.0001) PTRACERS_SOM_Advection = /* tracer uses SOM advection scheme */
(PID.TID 0000.0001)                   F
(PID.TID 0000.0001)     ;
(PID.TID 0000.0001) PTRACERS_ImplVertAdv = /* implicit vert. advection flag */
(PID.TID 0000.0001)                   F
(PID.TID 0000.0001)     ;
(PID.TID 0000.0001) PTRACERS_diffKh = /* Laplacian Diffusivity */
(PID.TID 0000.0001)                 0.000000000000000E+00
(PID.TID 0000.0001)     ;
(PID.TID 0000.0001) PTRACERS_diffK4 = /* Biharmonic Diffusivity */
(PID.TID 0000.0001)                 0.000000000000000E+00
(PID.TID 0000.0001)     ;
(PID.TID 0000.0001) PTRACERS_diffKrNr = /* Vertical Diffusivity */
(PID.TID 0000.0001)    35 @  1.000000000000000E-05              /* K =  1: 35 */
(PID.TID 0000.0001)     ;
(PID.TID 0000.0001) PTRACERS_useGMRedi = /* apply GM-Redi */
(PID.TID 0000.0001)                   F
(PID.TID 0000.0001)     ;
(PID.TID 0000.0001) PTRACERS_useDWNSLP = /* apply DOWN-SLOPE Flow */
(PID.TID 0000.0001)                   F
(PID.TID 0000.0001)     ;
(PID.TID 0000.0001) PTRACERS_useKPP = /* apply KPP scheme */
(PID.TID 0000.0001)                   T
(PID.TID 0000.0001)     ;
(PID.TID 0000.0001) PTRACERS_ref = /* Reference vertical profile */
(PID.TID 0000.0001)    35 @  0.000000000000000E+00              /* K =  1: 35 */
(PID.TID 0000.0001)     ;
(PID.TID 0000.0001) PTRACERS_EvPrRn =/* tracer conc. in Evap. & Rain */
(PID.TID 0000.0001)                 1.234567000000000E+05
(PID.TID 0000.0001)     ;
(PID.TID 0000.0001)  -----------------------------------
(PID.TID 0000.0001)  tracer number :   74
(PID.TID 0000.0001) PTRACERS_names = /* Tracer short name */
(PID.TID 0000.0001)               'OM_3_2'
(PID.TID 0000.0001)     ;
(PID.TID 0000.0001) PTRACERS_long_names = /* Tracer long name */
(PID.TID 0000.0001)               ''
(PID.TID 0000.0001)     ;
(PID.TID 0000.0001) PTRACERS_ioLabel = /* tracer IO Label */
(PID.TID 0000.0001)               '74'
(PID.TID 0000.0001)     ;
(PID.TID 0000.0001) PTRACERS_advScheme = /* Advection Scheme */
(PID.TID 0000.0001)                      33
(PID.TID 0000.0001)     ;
(PID.TID 0000.0001) PTRACERS_SOM_Advection = /* tracer uses SOM advection scheme */
(PID.TID 0000.0001)                   F
(PID.TID 0000.0001)     ;
(PID.TID 0000.0001) PTRACERS_ImplVertAdv = /* implicit vert. advection flag */
(PID.TID 0000.0001)                   F
(PID.TID 0000.0001)     ;
(PID.TID 0000.0001) PTRACERS_diffKh = /* Laplacian Diffusivity */
(PID.TID 0000.0001)                 0.000000000000000E+00
(PID.TID 0000.0001)     ;
(PID.TID 0000.0001) PTRACERS_diffK4 = /* Biharmonic Diffusivity */
(PID.TID 0000.0001)                 0.000000000000000E+00
(PID.TID 0000.0001)     ;
(PID.TID 0000.0001) PTRACERS_diffKrNr = /* Vertical Diffusivity */
(PID.TID 0000.0001)    35 @  1.000000000000000E-05              /* K =  1: 35 */
(PID.TID 0000.0001)     ;
(PID.TID 0000.0001) PTRACERS_useGMRedi = /* apply GM-Redi */
(PID.TID 0000.0001)                   F
(PID.TID 0000.0001)     ;
(PID.TID 0000.0001) PTRACERS_useDWNSLP = /* apply DOWN-SLOPE Flow */
(PID.TID 0000.0001)                   F
(PID.TID 0000.0001)     ;
(PID.TID 0000.0001) PTRACERS_useKPP = /* apply KPP scheme */
(PID.TID 0000.0001)                   T
(PID.TID 0000.0001)     ;
(PID.TID 0000.0001) PTRACERS_ref = /* Reference vertical profile */
(PID.TID 0000.0001)    35 @  0.000000000000000E+00              /* K =  1: 35 */
(PID.TID 0000.0001)     ;
(PID.TID 0000.0001) PTRACERS_EvPrRn =/* tracer conc. in Evap. & Rain */
(PID.TID 0000.0001)                 1.234567000000000E+05
(PID.TID 0000.0001)     ;
(PID.TID 0000.0001)  -----------------------------------
(PID.TID 0000.0001) GCHEM_CHECK: #define ALLOW_GCHEM
(PID.TID 0000.0001) QUOTA_CHECK: #define ALLOW_DARWIN
(PID.TID 0000.0001) QUOTA_CHECK: iPtr darwin PTRACERS_names
(PID.TID 0000.0001) // =======================================================
(PID.TID 0000.0001) QUOTA_CHECK:    1 inoganic nutrient (   1)  - DIC
(PID.TID 0000.0001) QUOTA_CHECK:    2 inoganic nutrient (   2)  - NO3
(PID.TID 0000.0001) QUOTA_CHECK:    3 inoganic nutrient (   3)  - NO2
(PID.TID 0000.0001) QUOTA_CHECK:    4 inoganic nutrient (   4)  - NH4
(PID.TID 0000.0001) QUOTA_CHECK:    5 inoganic nutrient (   5)  - FeT
(PID.TID 0000.0001) // =======================================================
(PID.TID 0000.0001) QUOTA_CHECK:    6 biomass (1, 1)    - BIO_1_001
(PID.TID 0000.0001) QUOTA_CHECK:    7 biomass (1, 2)    - BIO_1_002
(PID.TID 0000.0001) QUOTA_CHECK:    8 biomass (1, 3)    - BIO_1_003
(PID.TID 0000.0001) QUOTA_CHECK:    9 biomass (1, 4)    - BIO_1_004
(PID.TID 0000.0001) QUOTA_CHECK:   10 biomass (1, 5)    - BIO_1_005
(PID.TID 0000.0001) QUOTA_CHECK:   11 biomass (1, 6)    - BIO_1_006
(PID.TID 0000.0001) QUOTA_CHECK:   12 biomass (1, 7)    - BIO_1_007
(PID.TID 0000.0001) QUOTA_CHECK:   13 biomass (1, 8)    - BIO_1_008
(PID.TID 0000.0001) QUOTA_CHECK:   14 biomass (1, 9)    - BIO_1_009
(PID.TID 0000.0001) QUOTA_CHECK:   15 biomass (1,10)    - BIO_1_010
(PID.TID 0000.0001) QUOTA_CHECK:   16 biomass (1,11)    - BIO_1_011
(PID.TID 0000.0001) QUOTA_CHECK:   17 biomass (1,12)    - BIO_1_012
(PID.TID 0000.0001) QUOTA_CHECK:   18 biomass (1,13)    - BIO_1_013
(PID.TID 0000.0001) QUOTA_CHECK:   19 biomass (1,14)    - BIO_1_014
(PID.TID 0000.0001) QUOTA_CHECK:   20 biomass (1,15)    - BIO_1_015
(PID.TID 0000.0001) QUOTA_CHECK:   21 biomass (1,16)    - BIO_1_016
(PID.TID 0000.0001) QUOTA_CHECK:   22 biomass (2, 1)    - BIO_2_001
(PID.TID 0000.0001) QUOTA_CHECK:   23 biomass (2, 2)    - BIO_2_002
(PID.TID 0000.0001) QUOTA_CHECK:   24 biomass (2, 3)    - BIO_2_003
(PID.TID 0000.0001) QUOTA_CHECK:   25 biomass (2, 4)    - BIO_2_004
(PID.TID 0000.0001) QUOTA_CHECK:   26 biomass (2, 5)    - BIO_2_005
(PID.TID 0000.0001) QUOTA_CHECK:   27 biomass (2, 6)    - BIO_2_006
(PID.TID 0000.0001) QUOTA_CHECK:   28 biomass (2, 7)    - BIO_2_007
(PID.TID 0000.0001) QUOTA_CHECK:   29 biomass (2, 8)    - BIO_2_008
(PID.TID 0000.0001) QUOTA_CHECK:   30 biomass (2, 9)    - BIO_2_009
(PID.TID 0000.0001) QUOTA_CHECK:   31 biomass (2,10)    - BIO_2_010
(PID.TID 0000.0001) QUOTA_CHECK:   32 biomass (2,11)    - BIO_2_011
(PID.TID 0000.0001) QUOTA_CHECK:   33 biomass (2,12)    - BIO_2_012
(PID.TID 0000.0001) QUOTA_CHECK:   34 biomass (2,13)    - BIO_2_013
(PID.TID 0000.0001) QUOTA_CHECK:   35 biomass (2,14)    - BIO_2_014
(PID.TID 0000.0001) QUOTA_CHECK:   36 biomass (2,15)    - BIO_2_015
(PID.TID 0000.0001) QUOTA_CHECK:   37 biomass (2,16)    - BIO_2_016
(PID.TID 0000.0001) QUOTA_CHECK:   38 biomass (3, 1)    - BIO_3_001
(PID.TID 0000.0001) QUOTA_CHECK:   39 biomass (3, 2)    - BIO_3_002
(PID.TID 0000.0001) QUOTA_CHECK:   40 biomass (3, 3)    - BIO_3_003
(PID.TID 0000.0001) QUOTA_CHECK:   41 biomass (3, 4)    - BIO_3_004
(PID.TID 0000.0001) QUOTA_CHECK:   42 biomass (3, 5)    - BIO_3_005
(PID.TID 0000.0001) QUOTA_CHECK:   43 biomass (3, 6)    - BIO_3_006
(PID.TID 0000.0001) QUOTA_CHECK:   44 biomass (3, 7)    - BIO_3_007
(PID.TID 0000.0001) QUOTA_CHECK:   45 biomass (3, 8)    - BIO_3_008
(PID.TID 0000.0001) QUOTA_CHECK:   46 biomass (3, 9)    - BIO_3_009
(PID.TID 0000.0001) QUOTA_CHECK:   47 biomass (3,10)    - BIO_3_010
(PID.TID 0000.0001) QUOTA_CHECK:   48 biomass (3,11)    - BIO_3_011
(PID.TID 0000.0001) QUOTA_CHECK:   49 biomass (3,12)    - BIO_3_012
(PID.TID 0000.0001) QUOTA_CHECK:   50 biomass (3,13)    - BIO_3_013
(PID.TID 0000.0001) QUOTA_CHECK:   51 biomass (3,14)    - BIO_3_014
(PID.TID 0000.0001) QUOTA_CHECK:   52 biomass (3,15)    - BIO_3_015
(PID.TID 0000.0001) QUOTA_CHECK:   53 biomass (3,16)    - BIO_3_016
(PID.TID 0000.0001) QUOTA_CHECK:   54 biomass (4, 1)    - BIO_4_001
(PID.TID 0000.0001) QUOTA_CHECK:   55 biomass (4, 2)    - BIO_4_002
(PID.TID 0000.0001) QUOTA_CHECK:   56 biomass (4, 3)    - BIO_4_003
(PID.TID 0000.0001) QUOTA_CHECK:   57 biomass (4, 4)    - BIO_4_004
(PID.TID 0000.0001) QUOTA_CHECK:   58 biomass (4, 5)    - BIO_4_005
(PID.TID 0000.0001) QUOTA_CHECK:   59 biomass (4, 6)    - BIO_4_006
(PID.TID 0000.0001) QUOTA_CHECK:   60 biomass (4, 7)    - BIO_4_007
(PID.TID 0000.0001) QUOTA_CHECK:   61 biomass (4, 8)    - BIO_4_008
(PID.TID 0000.0001) QUOTA_CHECK:   62 biomass (4, 9)    - BIO_4_009
(PID.TID 0000.0001) QUOTA_CHECK:   63 biomass (4,10)    - BIO_4_010
(PID.TID 0000.0001) QUOTA_CHECK:   64 biomass (4,11)    - BIO_4_011
(PID.TID 0000.0001) QUOTA_CHECK:   65 biomass (4,12)    - BIO_4_012
(PID.TID 0000.0001) QUOTA_CHECK:   66 biomass (4,13)    - BIO_4_013
(PID.TID 0000.0001) QUOTA_CHECK:   67 biomass (4,14)    - BIO_4_014
(PID.TID 0000.0001) QUOTA_CHECK:   68 biomass (4,15)    - BIO_4_015
(PID.TID 0000.0001) QUOTA_CHECK:   69 biomass (4,16)    - OM_1_1
(PID.TID 0000.0001) // =======================================================
(PID.TID 0000.0001) QUOTA_CHECK:   70 orgmat(1, 1)      - OM_1_2
(PID.TID 0000.0001) QUOTA_CHECK:   71 orgmat(1, 2)      - OM_2_1
(PID.TID 0000.0001) QUOTA_CHECK:   72 orgmat(2, 1)      - OM_2_2
(PID.TID 0000.0001) QUOTA_CHECK:   73 orgmat(2, 2)      - OM_3_1
(PID.TID 0000.0001) QUOTA_CHECK:   74 orgmat(3, 1)      - OM_3_2
(PID.TID 0000.0001) QUOTA_CHECK:   75 orgmat(3, 2)      -
(PID.TID 0000.0001) GAD_CHECK: #define ALLOW_GENERIC_ADVDIFF
(PID.TID 0000.0001) // =======================================================
(PID.TID 0000.0001) // CONFIG_CHECK : Normal End
(PID.TID 0000.0001) // =======================================================
(PID.TID 0000.0001) 
(PID.TID 0000.0001)  MDS_READ_FIELD: opening global file: ../input/input/loc1_temp_janprof.bin
(PID.TID 0000.0001)  MDS_READ_FIELD: opening global file: ../input/input/salt_uniform.bin
(PID.TID 0000.0001) Start initial hydrostatic pressure computation
(PID.TID 0000.0001) Pressure is predetermined for buoyancyRelation OCEANIC
(PID.TID 0000.0001) 
(PID.TID 0000.0001)  MDS_READ_FIELD: opening global file: ../input/input/wind_u_mon.bin
(PID.TID 0000.0001)  MDS_READ_FIELD: opening global file: ../input/input/wind_v_mon.bin
(PID.TID 0000.0001)  MDS_READ_FIELD: opening global file: ../input/input/loc1_temp_monsurf.bin
(PID.TID 0000.0001)  MDS_READ_FIELD: opening global file: ../input/input/loc1_DIC_annprof.bin
(PID.TID 0000.0001)  MDS_READ_FIELD: opening global file: ../input/input/loc1_nitr_janprof.bin
(PID.TID 0000.0001)  MDS_READ_FIELD: opening global file: ../input/input/loc1_NO2_run83_janprof.bin
(PID.TID 0000.0001)  MDS_READ_FIELD: opening global file: ../input/input/loc1_NH4_run83_janprof.bin
(PID.TID 0000.0001)  MDS_READ_FIELD: opening global file: ../input/input/loc1_FeT_run83_janprof.bin
(PID.TID 0000.0001)  MDS_READ_FIELD: opening global file: ../input/input/loc1_C_biomass_janprof.bin
(PID.TID 0000.0001)  MDS_READ_FIELD: opening global file: ../input/input/loc1_C_biomass_janprof.bin
(PID.TID 0000.0001)  MDS_READ_FIELD: opening global file: ../input/input/loc1_C_biomass_janprof.bin
(PID.TID 0000.0001)  MDS_READ_FIELD: opening global file: ../input/input/loc1_C_biomass_janprof.bin
(PID.TID 0000.0001)  MDS_READ_FIELD: opening global file: ../input/input/loc1_C_biomass_janprof.bin
(PID.TID 0000.0001)  MDS_READ_FIELD: opening global file: ../input/input/loc1_C_biomass_janprof.bin
(PID.TID 0000.0001)  MDS_READ_FIELD: opening global file: ../input/input/loc1_C_biomass_janprof.bin
(PID.TID 0000.0001)  MDS_READ_FIELD: opening global file: ../input/input/loc1_C_biomass_janprof.bin
(PID.TID 0000.0001)  MDS_READ_FIELD: opening global file: ../input/input/loc1_C_biomass_janprof.bin
(PID.TID 0000.0001)  MDS_READ_FIELD: opening global file: ../input/input/loc1_C_biomass_janprof.bin
(PID.TID 0000.0001)  MDS_READ_FIELD: opening global file: ../input/input/loc1_C_biomass_janprof.bin
(PID.TID 0000.0001)  MDS_READ_FIELD: opening global file: ../input/input/loc1_C_biomass_janprof.bin
(PID.TID 0000.0001)  MDS_READ_FIELD: opening global file: ../input/input/loc1_C_biomass_janprof.bin
(PID.TID 0000.0001)  MDS_READ_FIELD: opening global file: ../input/input/loc1_C_biomass_janprof.bin
(PID.TID 0000.0001)  MDS_READ_FIELD: opening global file: ../input/input/loc1_C_biomass_janprof.bin
(PID.TID 0000.0001)  MDS_READ_FIELD: opening global file: ../input/input/loc1_C_biomass_janprof.bin
(PID.TID 0000.0001)  MDS_READ_FIELD: opening global file: ../input/input/loc1_N_biomass_janprof.bin
(PID.TID 0000.0001)  MDS_READ_FIELD: opening global file: ../input/input/loc1_N_biomass_janprof.bin
(PID.TID 0000.0001)  MDS_READ_FIELD: opening global file: ../input/input/loc1_N_biomass_janprof.bin
(PID.TID 0000.0001)  MDS_READ_FIELD: opening global file: ../input/input/loc1_N_biomass_janprof.bin
(PID.TID 0000.0001)  MDS_READ_FIELD: opening global file: ../input/input/loc1_N_biomass_janprof.bin
(PID.TID 0000.0001)  MDS_READ_FIELD: opening global file: ../input/input/loc1_N_biomass_janprof.bin
(PID.TID 0000.0001)  MDS_READ_FIELD: opening global file: ../input/input/loc1_N_biomass_janprof.bin
(PID.TID 0000.0001)  MDS_READ_FIELD: opening global file: ../input/input/loc1_N_biomass_janprof.bin
(PID.TID 0000.0001)  MDS_READ_FIELD: opening global file: ../input/input/loc1_N_biomass_janprof.bin
(PID.TID 0000.0001)  MDS_READ_FIELD: opening global file: ../input/input/loc1_N_biomass_janprof.bin
(PID.TID 0000.0001)  MDS_READ_FIELD: opening global file: ../input/input/loc1_N_biomass_janprof.bin
(PID.TID 0000.0001)  MDS_READ_FIELD: opening global file: ../input/input/loc1_N_biomass_janprof.bin
(PID.TID 0000.0001)  MDS_READ_FIELD: opening global file: ../input/input/loc1_N_biomass_janprof.bin
(PID.TID 0000.0001)  MDS_READ_FIELD: opening global file: ../input/input/loc1_N_biomass_janprof.bin
(PID.TID 0000.0001)  MDS_READ_FIELD: opening global file: ../input/input/loc1_N_biomass_janprof.bin
(PID.TID 0000.0001)  MDS_READ_FIELD: opening global file: ../input/input/loc1_N_biomass_janprof.bin
(PID.TID 0000.0001)  MDS_READ_FIELD: opening global file: ../input/input/loc1_Fe_biomass_janprof.bin
(PID.TID 0000.0001)  MDS_READ_FIELD: opening global file: ../input/input/loc1_Fe_biomass_janprof.bin
(PID.TID 0000.0001)  MDS_READ_FIELD: opening global file: ../input/input/loc1_Fe_biomass_janprof.bin
(PID.TID 0000.0001)  MDS_READ_FIELD: opening global file: ../input/input/loc1_Fe_biomass_janprof.bin
(PID.TID 0000.0001)  MDS_READ_FIELD: opening global file: ../input/input/loc1_Fe_biomass_janprof.bin
(PID.TID 0000.0001)  MDS_READ_FIELD: opening global file: ../input/input/loc1_Fe_biomass_janprof.bin
(PID.TID 0000.0001)  MDS_READ_FIELD: opening global file: ../input/input/loc1_Fe_biomass_janprof.bin
(PID.TID 0000.0001)  MDS_READ_FIELD: opening global file: ../input/input/loc1_Fe_biomass_janprof.bin
(PID.TID 0000.0001)  MDS_READ_FIELD: opening global file: ../input/input/loc1_Fe_biomass_janprof.bin
(PID.TID 0000.0001)  MDS_READ_FIELD: opening global file: ../input/input/loc1_Fe_biomass_janprof.bin
(PID.TID 0000.0001)  MDS_READ_FIELD: opening global file: ../input/input/loc1_Fe_biomass_janprof.bin
(PID.TID 0000.0001)  MDS_READ_FIELD: opening global file: ../input/input/loc1_Fe_biomass_janprof.bin
(PID.TID 0000.0001)  MDS_READ_FIELD: opening global file: ../input/input/loc1_Fe_biomass_janprof.bin
(PID.TID 0000.0001)  MDS_READ_FIELD: opening global file: ../input/input/loc1_Fe_biomass_janprof.bin
(PID.TID 0000.0001)  MDS_READ_FIELD: opening global file: ../input/input/loc1_Fe_biomass_janprof.bin
(PID.TID 0000.0001)  MDS_READ_FIELD: opening global file: ../input/input/loc1_Fe_biomass_janprof.bin
(PID.TID 0000.0001)  MDS_READ_FIELD: opening global file: ../input/input/loc1_chlorophyll_janprof.bin
(PID.TID 0000.0001)  MDS_READ_FIELD: opening global file: ../input/input/loc1_chlorophyll_janprof.bin
(PID.TID 0000.0001)  MDS_READ_FIELD: opening global file: ../input/input/loc1_chlorophyll_janprof.bin
(PID.TID 0000.0001)  MDS_READ_FIELD: opening global file: ../input/input/loc1_chlorophyll_janprof.bin
(PID.TID 0000.0001)  MDS_READ_FIELD: opening global file: ../input/input/loc1_chlorophyll_janprof.bin
(PID.TID 0000.0001)  MDS_READ_FIELD: opening global file: ../input/input/loc1_chlorophyll_janprof.bin
(PID.TID 0000.0001)  MDS_READ_FIELD: opening global file: ../input/input/loc1_chlorophyll_janprof.bin
(PID.TID 0000.0001)  MDS_READ_FIELD: opening global file: ../input/input/loc1_chlorophyll_janprof.bin
(PID.TID 0000.0001)  MDS_READ_FIELD: opening global file: ../input/input/loc1_chlorophyll_janprof.bin
(PID.TID 0000.0001)  MDS_READ_FIELD: opening global file: ../input/input/loc1_chlorophyll_janprof.bin
(PID.TID 0000.0001)  MDS_READ_FIELD: opening global file: ../input/input/loc1_chlorophyll_janprof.bin
(PID.TID 0000.0001)  MDS_READ_FIELD: opening global file: ../input/input/loc1_chlorophyll_janprof.bin
(PID.TID 0000.0001)  MDS_READ_FIELD: opening global file: ../input/input/loc1_chlorophyll_janprof.bin
(PID.TID 0000.0001)  MDS_READ_FIELD: opening global file: ../input/input/loc1_chlorophyll_janprof.bin
(PID.TID 0000.0001)  MDS_READ_FIELD: opening global file: ../input/input/loc1_chlorophyll_janprof.bin
(PID.TID 0000.0001)  MDS_READ_FIELD: opening global file: ../input/input/loc1_DOC_janprof.bin
(PID.TID 0000.0001)  MDS_READ_FIELD: opening global file: ../input/input/loc1_POC_janprof.bin
(PID.TID 0000.0001)  MDS_READ_FIELD: opening global file: ../input/input/loc1_DON_run83_janprof.bin
(PID.TID 0000.0001)  MDS_READ_FIELD: opening global file: ../input/input/loc1_PON_run83_janprof.bin
(PID.TID 0000.0001)  MDS_READ_FIELD: opening global file: ../input/input/loc1_DOFe_run83_janprof.bin
(PID.TID 0000.0001)  MDS_READ_FIELD: opening global file: ../input/input/loc1_POFe_run83_janprof.bin
(PID.TID 0000.0001) QQ random port_rand            11231   0.4077530000000000
(PID.TID 0000.0001) // =======================================================
(PID.TID 0000.0001) // Quota init variables >>> START <<<
(PID.TID 0000.0001) // =======================================================
(PID.TID 0000.0001) QQ start timeave
(PID.TID 0000.0001) // =======================================================
(PID.TID 0000.0001) // Darwin init variables >>> END <<<
(PID.TID 0000.0001) // =======================================================
(PID.TID 0000.0001) // =======================================================
(PID.TID 0000.0001) // Model current state
(PID.TID 0000.0001) // =======================================================
(PID.TID 0000.0001) 
(PID.TID 0000.0001) // =======================================================
(PID.TID 0000.0001) // Begin MONITOR dynamic field statistics
(PID.TID 0000.0001) // =======================================================
(PID.TID 0000.0001) %MON time_tsnumber                =                     0
(PID.TID 0000.0001) %MON time_secondsf                =   0.0000000000000E+00
(PID.TID 0000.0001) %MON dynstat_eta_max              =   0.0000000000000E+00
(PID.TID 0000.0001) %MON dynstat_eta_min              =   0.0000000000000E+00
(PID.TID 0000.0001) %MON dynstat_eta_mean             =   0.0000000000000E+00
(PID.TID 0000.0001) %MON dynstat_eta_sd               =   0.0000000000000E+00
(PID.TID 0000.0001) %MON dynstat_eta_del2             =   0.0000000000000E+00
(PID.TID 0000.0001) %MON dynstat_uvel_max             =   0.0000000000000E+00
(PID.TID 0000.0001) %MON dynstat_uvel_min             =   0.0000000000000E+00
(PID.TID 0000.0001) %MON dynstat_uvel_mean            =   0.0000000000000E+00
(PID.TID 0000.0001) %MON dynstat_uvel_sd              =   0.0000000000000E+00
(PID.TID 0000.0001) %MON dynstat_uvel_del2            =   0.0000000000000E+00
(PID.TID 0000.0001) %MON dynstat_vvel_max             =   0.0000000000000E+00
(PID.TID 0000.0001) %MON dynstat_vvel_min             =   0.0000000000000E+00
(PID.TID 0000.0001) %MON dynstat_vvel_mean            =   0.0000000000000E+00
(PID.TID 0000.0001) %MON dynstat_vvel_sd              =   0.0000000000000E+00
(PID.TID 0000.0001) %MON dynstat_vvel_del2            =   0.0000000000000E+00
(PID.TID 0000.0001) %MON dynstat_wvel_max             =   0.0000000000000E+00
(PID.TID 0000.0001) %MON dynstat_wvel_min             =   0.0000000000000E+00
(PID.TID 0000.0001) %MON dynstat_wvel_mean            =   0.0000000000000E+00
(PID.TID 0000.0001) %MON dynstat_wvel_sd              =   0.0000000000000E+00
(PID.TID 0000.0001) %MON dynstat_wvel_del2            =   0.0000000000000E+00
(PID.TID 0000.0001) %MON dynstat_theta_max            =   6.5096502304077E+00
(PID.TID 0000.0001) %MON dynstat_theta_min            =  -9.3889999389648E-01
(PID.TID 0000.0001) %MON dynstat_theta_mean           =   1.5603987870469E-01
(PID.TID 0000.0001) %MON dynstat_theta_sd             =   2.0853921626073E+00
(PID.TID 0000.0001) %MON dynstat_theta_del2           =   0.0000000000000E+00
(PID.TID 0000.0001) %MON dynstat_salt_max             =   3.5000000000000E+01
(PID.TID 0000.0001) %MON dynstat_salt_min             =   3.5000000000000E+01
(PID.TID 0000.0001) %MON dynstat_salt_mean            =   3.5000000000000E+01
(PID.TID 0000.0001) %MON dynstat_salt_sd              =   7.1054273576010E-15
(PID.TID 0000.0001) %MON dynstat_salt_del2            =   0.0000000000000E+00
(PID.TID 0000.0001) %MON dynstat_sst_max              =   6.5096502304077E+00
(PID.TID 0000.0001) %MON dynstat_sst_min              =   6.5096502304077E+00
(PID.TID 0000.0001) %MON dynstat_sst_mean             =   6.5096502304077E+00
(PID.TID 0000.0001) %MON dynstat_sst_sd               =   0.0000000000000E+00
(PID.TID 0000.0001) %MON dynstat_sst_del2             =   0.0000000000000E+00
(PID.TID 0000.0001) %MON dynstat_sss_max              =   3.5000000000000E+01
(PID.TID 0000.0001) %MON dynstat_sss_min              =   3.5000000000000E+01
(PID.TID 0000.0001) %MON dynstat_sss_mean             =   3.5000000000000E+01
(PID.TID 0000.0001) %MON dynstat_sss_sd               =   0.0000000000000E+00
(PID.TID 0000.0001) %MON dynstat_sss_del2             =   0.0000000000000E+00
(PID.TID 0000.0001) %MON forcing_qnet_max             =   0.0000000000000E+00
(PID.TID 0000.0001) %MON forcing_qnet_min             =   0.0000000000000E+00
(PID.TID 0000.0001) %MON forcing_qnet_mean            =   0.0000000000000E+00
(PID.TID 0000.0001) %MON forcing_qnet_sd              =   0.0000000000000E+00
(PID.TID 0000.0001) %MON forcing_qnet_del2            =   0.0000000000000E+00
(PID.TID 0000.0001) %MON forcing_qsw_max              =   0.0000000000000E+00
(PID.TID 0000.0001) %MON forcing_qsw_min              =   0.0000000000000E+00
(PID.TID 0000.0001) %MON forcing_qsw_mean             =   0.0000000000000E+00
(PID.TID 0000.0001) %MON forcing_qsw_sd               =   0.0000000000000E+00
(PID.TID 0000.0001) %MON forcing_qsw_del2             =   0.0000000000000E+00
(PID.TID 0000.0001) %MON forcing_empmr_max            =   0.0000000000000E+00
(PID.TID 0000.0001) %MON forcing_empmr_min            =   0.0000000000000E+00
(PID.TID 0000.0001) %MON forcing_empmr_mean           =   0.0000000000000E+00
(PID.TID 0000.0001) %MON forcing_empmr_sd             =   0.0000000000000E+00
(PID.TID 0000.0001) %MON forcing_empmr_del2           =   0.0000000000000E+00
(PID.TID 0000.0001) %MON forcing_fu_max               =   1.8626669645309E+00
(PID.TID 0000.0001) %MON forcing_fu_min               =   1.8626669645309E+00
(PID.TID 0000.0001) %MON forcing_fu_mean              =   1.8626669645309E+00
(PID.TID 0000.0001) %MON forcing_fu_sd                =   0.0000000000000E+00
(PID.TID 0000.0001) %MON forcing_fu_del2              =   0.0000000000000E+00
(PID.TID 0000.0001) %MON forcing_fv_max               =   1.5513329505920E+00
(PID.TID 0000.0001) %MON forcing_fv_min               =   1.5513329505920E+00
(PID.TID 0000.0001) %MON forcing_fv_mean              =   1.5513329505920E+00
(PID.TID 0000.0001) %MON forcing_fv_sd                =   0.0000000000000E+00
(PID.TID 0000.0001) %MON forcing_fv_del2              =   0.0000000000000E+00
(PID.TID 0000.0001) %MON advcfl_uvel_max              =   0.0000000000000E+00
(PID.TID 0000.0001) %MON advcfl_vvel_max              =   0.0000000000000E+00
(PID.TID 0000.0001) %MON advcfl_wvel_max              =   0.0000000000000E+00
(PID.TID 0000.0001) %MON advcfl_W_hf_max              =   0.0000000000000E+00
(PID.TID 0000.0001) %MON pe_b_mean                    =   0.0000000000000E+00
(PID.TID 0000.0001) %MON ke_max                       =   0.0000000000000E+00
(PID.TID 0000.0001) %MON ke_mean                      =   0.0000000000000E+00
(PID.TID 0000.0001) %MON ke_vol                       =   4.1199767883485E+13
(PID.TID 0000.0001) %MON vort_r_min                   =   0.0000000000000E+00
(PID.TID 0000.0001) %MON vort_r_max                   =   0.0000000000000E+00
(PID.TID 0000.0001) %MON vort_a_mean                  =  -4.5067801836625E-05
(PID.TID 0000.0001) %MON vort_a_sd                    =  -4.1359030627651E-25
(PID.TID 0000.0001) %MON vort_p_mean                  =  -4.5067801836625E-05
(PID.TID 0000.0001) %MON vort_p_sd                    =   0.0000000000000E+00
(PID.TID 0000.0001) %MON surfExpan_theta_mean         =   0.0000000000000E+00
(PID.TID 0000.0001) %MON surfExpan_salt_mean          =   0.0000000000000E+00
(PID.TID 0000.0001) // =======================================================
(PID.TID 0000.0001) // End MONITOR dynamic field statistics
(PID.TID 0000.0001) // =======================================================
(PID.TID 0000.0001) // =======================================================
(PID.TID 0000.0001) // Begin MONITOR ptracer field statistics
(PID.TID 0000.0001) // =======================================================
(PID.TID 0000.0001) %MON trcstat_ptracer01_max        =   2.1623999023438E+03
(PID.TID 0000.0001) %MON trcstat_ptracer01_min        =   2.0848964843750E+03
(PID.TID 0000.0001) %MON trcstat_ptracer01_mean       =   2.1557233177698E+03
(PID.TID 0000.0001) %MON trcstat_ptracer01_sd         =   1.1620928165015E+01
(PID.TID 0000.0001) %MON trcstat_ptracer01_del2       =   0.0000000000000E+00
(PID.TID 0000.0001) %MON trcstat_ptracer02_max        =   1.5341600418091E+01
(PID.TID 0000.0001) %MON trcstat_ptracer02_min        =   1.1842899322510E+01
(PID.TID 0000.0001) %MON trcstat_ptracer02_mean       =   1.4471561560133E+01
(PID.TID 0000.0001) %MON trcstat_ptracer02_sd         =   9.1988937719318E-01
(PID.TID 0000.0001) %MON trcstat_ptracer02_del2       =   0.0000000000000E+00
(PID.TID 0000.0001) %MON trcstat_ptracer03_max        =   3.7918146699667E-02
(PID.TID 0000.0001) %MON trcstat_ptracer03_min        =   0.0000000000000E+00
(PID.TID 0000.0001) %MON trcstat_ptracer03_mean       =   7.8145818443748E-03
(PID.TID 0000.0001) %MON trcstat_ptracer03_sd         =   1.0806319055981E-02
(PID.TID 0000.0001) %MON trcstat_ptracer03_del2       =   0.0000000000000E+00
(PID.TID 0000.0001) %MON trcstat_ptracer04_max        =   2.2952675353736E-03
(PID.TID 0000.0001) %MON trcstat_ptracer04_min        =   0.0000000000000E+00
(PID.TID 0000.0001) %MON trcstat_ptracer04_mean       =   3.3611169662653E-04
(PID.TID 0000.0001) %MON trcstat_ptracer04_sd         =   4.7743954057331E-04
(PID.TID 0000.0001) %MON trcstat_ptracer04_del2       =   0.0000000000000E+00
(PID.TID 0000.0001) %MON trcstat_ptracer05_max        =   9.1629312373698E-04
(PID.TID 0000.0001) %MON trcstat_ptracer05_min        =   0.0000000000000E+00
(PID.TID 0000.0001) %MON trcstat_ptracer05_mean       =   5.7980704863419E-04
(PID.TID 0000.0001) %MON trcstat_ptracer05_sd         =   3.7871275821035E-04
(PID.TID 0000.0001) %MON trcstat_ptracer05_del2       =   0.0000000000000E+00
(PID.TID 0000.0001) %MON trcstat_ptracer06_max        =   6.6250001040657E-09
(PID.TID 0000.0001) %MON trcstat_ptracer06_min        =   6.6250001040657E-09
(PID.TID 0000.0001) %MON trcstat_ptracer06_mean       =   6.6250001040658E-09
(PID.TID 0000.0001) %MON trcstat_ptracer06_sd         =   2.4815418376591E-24
(PID.TID 0000.0001) %MON trcstat_ptracer06_del2       =   0.0000000000000E+00
(PID.TID 0000.0001) %MON trcstat_ptracer07_max        =   6.6250001040657E-09
(PID.TID 0000.0001) %MON trcstat_ptracer07_min        =   6.6250001040657E-09
(PID.TID 0000.0001) %MON trcstat_ptracer07_mean       =   6.6250001040658E-09
(PID.TID 0000.0001) %MON trcstat_ptracer07_sd         =   2.4815418376591E-24
(PID.TID 0000.0001) %MON trcstat_ptracer07_del2       =   0.0000000000000E+00
(PID.TID 0000.0001) %MON trcstat_ptracer08_max        =   6.6250001040657E-09
(PID.TID 0000.0001) %MON trcstat_ptracer08_min        =   6.6250001040657E-09
(PID.TID 0000.0001) %MON trcstat_ptracer08_mean       =   6.6250001040658E-09
(PID.TID 0000.0001) %MON trcstat_ptracer08_sd         =   2.4815418376591E-24
(PID.TID 0000.0001) %MON trcstat_ptracer08_del2       =   0.0000000000000E+00
(PID.TID 0000.0001) %MON trcstat_ptracer09_max        =   6.6250001040657E-09
(PID.TID 0000.0001) %MON trcstat_ptracer09_min        =   6.6250001040657E-09
(PID.TID 0000.0001) %MON trcstat_ptracer09_mean       =   6.6250001040658E-09
(PID.TID 0000.0001) %MON trcstat_ptracer09_sd         =   2.4815418376591E-24
(PID.TID 0000.0001) %MON trcstat_ptracer09_del2       =   0.0000000000000E+00
(PID.TID 0000.0001) %MON trcstat_ptracer10_max        =   6.6250001040657E-09
(PID.TID 0000.0001) %MON trcstat_ptracer10_min        =   6.6250001040657E-09
(PID.TID 0000.0001) %MON trcstat_ptracer10_mean       =   6.6250001040658E-09
(PID.TID 0000.0001) %MON trcstat_ptracer10_sd         =   2.4815418376591E-24
(PID.TID 0000.0001) %MON trcstat_ptracer10_del2       =   0.0000000000000E+00
(PID.TID 0000.0001) %MON trcstat_ptracer11_max        =   6.6250001040657E-09
(PID.TID 0000.0001) %MON trcstat_ptracer11_min        =   6.6250001040657E-09
(PID.TID 0000.0001) %MON trcstat_ptracer11_mean       =   6.6250001040658E-09
(PID.TID 0000.0001) %MON trcstat_ptracer11_sd         =   2.4815418376591E-24
(PID.TID 0000.0001) %MON trcstat_ptracer11_del2       =   0.0000000000000E+00
(PID.TID 0000.0001) %MON trcstat_ptracer12_max        =   6.6250001040657E-09
(PID.TID 0000.0001) %MON trcstat_ptracer12_min        =   6.6250001040657E-09
(PID.TID 0000.0001) %MON trcstat_ptracer12_mean       =   6.6250001040658E-09
(PID.TID 0000.0001) %MON trcstat_ptracer12_sd         =   2.4815418376591E-24
(PID.TID 0000.0001) %MON trcstat_ptracer12_del2       =   0.0000000000000E+00
(PID.TID 0000.0001) %MON trcstat_ptracer13_max        =   6.6250001040657E-09
(PID.TID 0000.0001) %MON trcstat_ptracer13_min        =   6.6250001040657E-09
(PID.TID 0000.0001) %MON trcstat_ptracer13_mean       =   6.6250001040658E-09
(PID.TID 0000.0001) %MON trcstat_ptracer13_sd         =   2.4815418376591E-24
(PID.TID 0000.0001) %MON trcstat_ptracer13_del2       =   0.0000000000000E+00
(PID.TID 0000.0001) %MON trcstat_ptracer14_max        =   6.6250001040657E-09
(PID.TID 0000.0001) %MON trcstat_ptracer14_min        =   6.6250001040657E-09
(PID.TID 0000.0001) %MON trcstat_ptracer14_mean       =   6.6250001040658E-09
(PID.TID 0000.0001) %MON trcstat_ptracer14_sd         =   2.4815418376591E-24
(PID.TID 0000.0001) %MON trcstat_ptracer14_del2       =   0.0000000000000E+00
(PID.TID 0000.0001) %MON trcstat_ptracer15_max        =   6.6250001040657E-09
(PID.TID 0000.0001) %MON trcstat_ptracer15_min        =   6.6250001040657E-09
(PID.TID 0000.0001) %MON trcstat_ptracer15_mean       =   6.6250001040658E-09
(PID.TID 0000.0001) %MON trcstat_ptracer15_sd         =   2.4815418376591E-24
(PID.TID 0000.0001) %MON trcstat_ptracer15_del2       =   0.0000000000000E+00
(PID.TID 0000.0001) %MON trcstat_ptracer16_max        =   6.6250001040657E-09
(PID.TID 0000.0001) %MON trcstat_ptracer16_min        =   6.6250001040657E-09
(PID.TID 0000.0001) %MON trcstat_ptracer16_mean       =   6.6250001040658E-09
(PID.TID 0000.0001) %MON trcstat_ptracer16_sd         =   2.4815418376591E-24
(PID.TID 0000.0001) %MON trcstat_ptracer16_del2       =   0.0000000000000E+00
(PID.TID 0000.0001) %MON trcstat_ptracer17_max        =   6.6250001040657E-09
(PID.TID 0000.0001) %MON trcstat_ptracer17_min        =   6.6250001040657E-09
(PID.TID 0000.0001) %MON trcstat_ptracer17_mean       =   6.6250001040658E-09
(PID.TID 0000.0001) %MON trcstat_ptracer17_sd         =   2.4815418376591E-24
(PID.TID 0000.0001) %MON trcstat_ptracer17_del2       =   0.0000000000000E+00
(PID.TID 0000.0001) %MON trcstat_ptracer18_max        =   6.6250001040657E-09
(PID.TID 0000.0001) %MON trcstat_ptracer18_min        =   6.6250001040657E-09
(PID.TID 0000.0001) %MON trcstat_ptracer18_mean       =   6.6250001040658E-09
(PID.TID 0000.0001) %MON trcstat_ptracer18_sd         =   2.4815418376591E-24
(PID.TID 0000.0001) %MON trcstat_ptracer18_del2       =   0.0000000000000E+00
(PID.TID 0000.0001) %MON trcstat_ptracer19_max        =   6.6250001040657E-09
(PID.TID 0000.0001) %MON trcstat_ptracer19_min        =   6.6250001040657E-09
(PID.TID 0000.0001) %MON trcstat_ptracer19_mean       =   6.6250001040658E-09
(PID.TID 0000.0001) %MON trcstat_ptracer19_sd         =   2.4815418376591E-24
(PID.TID 0000.0001) %MON trcstat_ptracer19_del2       =   0.0000000000000E+00
(PID.TID 0000.0001) %MON trcstat_ptracer20_max        =   6.6250001040657E-09
(PID.TID 0000.0001) %MON trcstat_ptracer20_min        =   6.6250001040657E-09
(PID.TID 0000.0001) %MON trcstat_ptracer20_mean       =   6.6250001040658E-09
(PID.TID 0000.0001) %MON trcstat_ptracer20_sd         =   2.4815418376591E-24
(PID.TID 0000.0001) %MON trcstat_ptracer20_del2       =   0.0000000000000E+00
(PID.TID 0000.0001) %MON trcstat_ptracer21_max        =   6.6250001040657E-09
(PID.TID 0000.0001) %MON trcstat_ptracer21_min        =   6.6250001040657E-09
(PID.TID 0000.0001) %MON trcstat_ptracer21_mean       =   6.6250001040658E-09
(PID.TID 0000.0001) %MON trcstat_ptracer21_sd         =   2.4815418376591E-24
(PID.TID 0000.0001) %MON trcstat_ptracer21_del2       =   0.0000000000000E+00
(PID.TID 0000.0001) %MON trcstat_ptracer22_max        =   4.9999998585903E-10
(PID.TID 0000.0001) %MON trcstat_ptracer22_min        =   4.9999998585903E-10
(PID.TID 0000.0001) %MON trcstat_ptracer22_mean       =   4.9999998585903E-10
(PID.TID 0000.0001) %MON trcstat_ptracer22_sd         =   0.0000000000000E+00
(PID.TID 0000.0001) %MON trcstat_ptracer22_del2       =   0.0000000000000E+00
(PID.TID 0000.0001) %MON trcstat_ptracer23_max        =   4.9999998585903E-10
(PID.TID 0000.0001) %MON trcstat_ptracer23_min        =   4.9999998585903E-10
(PID.TID 0000.0001) %MON trcstat_ptracer23_mean       =   4.9999998585903E-10
(PID.TID 0000.0001) %MON trcstat_ptracer23_sd         =   0.0000000000000E+00
(PID.TID 0000.0001) %MON trcstat_ptracer23_del2       =   0.0000000000000E+00
(PID.TID 0000.0001) %MON trcstat_ptracer24_max        =   4.9999998585903E-10
(PID.TID 0000.0001) %MON trcstat_ptracer24_min        =   4.9999998585903E-10
(PID.TID 0000.0001) %MON trcstat_ptracer24_mean       =   4.9999998585903E-10
(PID.TID 0000.0001) %MON trcstat_ptracer24_sd         =   0.0000000000000E+00
(PID.TID 0000.0001) %MON trcstat_ptracer24_del2       =   0.0000000000000E+00
(PID.TID 0000.0001) %MON trcstat_ptracer25_max        =   4.9999998585903E-10
(PID.TID 0000.0001) %MON trcstat_ptracer25_min        =   4.9999998585903E-10
(PID.TID 0000.0001) %MON trcstat_ptracer25_mean       =   4.9999998585903E-10
(PID.TID 0000.0001) %MON trcstat_ptracer25_sd         =   0.0000000000000E+00
(PID.TID 0000.0001) %MON trcstat_ptracer25_del2       =   0.0000000000000E+00
(PID.TID 0000.0001) %MON trcstat_ptracer26_max        =   4.9999998585903E-10
(PID.TID 0000.0001) %MON trcstat_ptracer26_min        =   4.9999998585903E-10
(PID.TID 0000.0001) %MON trcstat_ptracer26_mean       =   4.9999998585903E-10
(PID.TID 0000.0001) %MON trcstat_ptracer26_sd         =   0.0000000000000E+00
(PID.TID 0000.0001) %MON trcstat_ptracer26_del2       =   0.0000000000000E+00
(PID.TID 0000.0001) %MON trcstat_ptracer27_max        =   4.9999998585903E-10
(PID.TID 0000.0001) %MON trcstat_ptracer27_min        =   4.9999998585903E-10
(PID.TID 0000.0001) %MON trcstat_ptracer27_mean       =   4.9999998585903E-10
(PID.TID 0000.0001) %MON trcstat_ptracer27_sd         =   0.0000000000000E+00
(PID.TID 0000.0001) %MON trcstat_ptracer27_del2       =   0.0000000000000E+00
(PID.TID 0000.0001) %MON trcstat_ptracer28_max        =   4.9999998585903E-10
(PID.TID 0000.0001) %MON trcstat_ptracer28_min        =   4.9999998585903E-10
(PID.TID 0000.0001) %MON trcstat_ptracer28_mean       =   4.9999998585903E-10
(PID.TID 0000.0001) %MON trcstat_ptracer28_sd         =   0.0000000000000E+00
(PID.TID 0000.0001) %MON trcstat_ptracer28_del2       =   0.0000000000000E+00
(PID.TID 0000.0001) %MON trcstat_ptracer29_max        =   4.9999998585903E-10
(PID.TID 0000.0001) %MON trcstat_ptracer29_min        =   4.9999998585903E-10
(PID.TID 0000.0001) %MON trcstat_ptracer29_mean       =   4.9999998585903E-10
(PID.TID 0000.0001) %MON trcstat_ptracer29_sd         =   0.0000000000000E+00
(PID.TID 0000.0001) %MON trcstat_ptracer29_del2       =   0.0000000000000E+00
(PID.TID 0000.0001) %MON trcstat_ptracer30_max        =   4.9999998585903E-10
(PID.TID 0000.0001) %MON trcstat_ptracer30_min        =   4.9999998585903E-10
(PID.TID 0000.0001) %MON trcstat_ptracer30_mean       =   4.9999998585903E-10
(PID.TID 0000.0001) %MON trcstat_ptracer30_sd         =   0.0000000000000E+00
(PID.TID 0000.0001) %MON trcstat_ptracer30_del2       =   0.0000000000000E+00
(PID.TID 0000.0001) %MON trcstat_ptracer31_max        =   4.9999998585903E-10
(PID.TID 0000.0001) %MON trcstat_ptracer31_min        =   4.9999998585903E-10
(PID.TID 0000.0001) %MON trcstat_ptracer31_mean       =   4.9999998585903E-10
(PID.TID 0000.0001) %MON trcstat_ptracer31_sd         =   0.0000000000000E+00
(PID.TID 0000.0001) %MON trcstat_ptracer31_del2       =   0.0000000000000E+00
(PID.TID 0000.0001) %MON trcstat_ptracer32_max        =   4.9999998585903E-10
(PID.TID 0000.0001) %MON trcstat_ptracer32_min        =   4.9999998585903E-10
(PID.TID 0000.0001) %MON trcstat_ptracer32_mean       =   4.9999998585903E-10
(PID.TID 0000.0001) %MON trcstat_ptracer32_sd         =   0.0000000000000E+00
(PID.TID 0000.0001) %MON trcstat_ptracer32_del2       =   0.0000000000000E+00
(PID.TID 0000.0001) %MON trcstat_ptracer33_max        =   4.9999998585903E-10
(PID.TID 0000.0001) %MON trcstat_ptracer33_min        =   4.9999998585903E-10
(PID.TID 0000.0001) %MON trcstat_ptracer33_mean       =   4.9999998585903E-10
(PID.TID 0000.0001) %MON trcstat_ptracer33_sd         =   0.0000000000000E+00
(PID.TID 0000.0001) %MON trcstat_ptracer33_del2       =   0.0000000000000E+00
(PID.TID 0000.0001) %MON trcstat_ptracer34_max        =   4.9999998585903E-10
(PID.TID 0000.0001) %MON trcstat_ptracer34_min        =   4.9999998585903E-10
(PID.TID 0000.0001) %MON trcstat_ptracer34_mean       =   4.9999998585903E-10
(PID.TID 0000.0001) %MON trcstat_ptracer34_sd         =   0.0000000000000E+00
(PID.TID 0000.0001) %MON trcstat_ptracer34_del2       =   0.0000000000000E+00
(PID.TID 0000.0001) %MON trcstat_ptracer35_max        =   4.9999998585903E-10
(PID.TID 0000.0001) %MON trcstat_ptracer35_min        =   4.9999998585903E-10
(PID.TID 0000.0001) %MON trcstat_ptracer35_mean       =   4.9999998585903E-10
(PID.TID 0000.0001) %MON trcstat_ptracer35_sd         =   0.0000000000000E+00
(PID.TID 0000.0001) %MON trcstat_ptracer35_del2       =   0.0000000000000E+00
(PID.TID 0000.0001) %MON trcstat_ptracer36_max        =   4.9999998585903E-10
(PID.TID 0000.0001) %MON trcstat_ptracer36_min        =   4.9999998585903E-10
(PID.TID 0000.0001) %MON trcstat_ptracer36_mean       =   4.9999998585903E-10
(PID.TID 0000.0001) %MON trcstat_ptracer36_sd         =   0.0000000000000E+00
(PID.TID 0000.0001) %MON trcstat_ptracer36_del2       =   0.0000000000000E+00
(PID.TID 0000.0001) %MON trcstat_ptracer37_max        =   4.9999998585903E-10
(PID.TID 0000.0001) %MON trcstat_ptracer37_min        =   4.9999998585903E-10
(PID.TID 0000.0001) %MON trcstat_ptracer37_mean       =   4.9999998585903E-10
(PID.TID 0000.0001) %MON trcstat_ptracer37_sd         =   0.0000000000000E+00
(PID.TID 0000.0001) %MON trcstat_ptracer37_del2       =   0.0000000000000E+00
(PID.TID 0000.0001) %MON trcstat_ptracer38_max        =   2.9999999473550E-14
(PID.TID 0000.0001) %MON trcstat_ptracer38_min        =   2.9999999473550E-14
(PID.TID 0000.0001) %MON trcstat_ptracer38_mean       =   2.9999999473550E-14
(PID.TID 0000.0001) %MON trcstat_ptracer38_sd         =   6.3108872417681E-30
(PID.TID 0000.0001) %MON trcstat_ptracer38_del2       =   0.0000000000000E+00
(PID.TID 0000.0001) %MON trcstat_ptracer39_max        =   2.9999999473550E-14
(PID.TID 0000.0001) %MON trcstat_ptracer39_min        =   2.9999999473550E-14
(PID.TID 0000.0001) %MON trcstat_ptracer39_mean       =   2.9999999473550E-14
(PID.TID 0000.0001) %MON trcstat_ptracer39_sd         =   6.3108872417681E-30
(PID.TID 0000.0001) %MON trcstat_ptracer39_del2       =   0.0000000000000E+00
(PID.TID 0000.0001) %MON trcstat_ptracer40_max        =   2.9999999473550E-14
(PID.TID 0000.0001) %MON trcstat_ptracer40_min        =   2.9999999473550E-14
(PID.TID 0000.0001) %MON trcstat_ptracer40_mean       =   2.9999999473550E-14
(PID.TID 0000.0001) %MON trcstat_ptracer40_sd         =   6.3108872417681E-30
(PID.TID 0000.0001) %MON trcstat_ptracer40_del2       =   0.0000000000000E+00
(PID.TID 0000.0001) %MON trcstat_ptracer41_max        =   2.9999999473550E-14
(PID.TID 0000.0001) %MON trcstat_ptracer41_min        =   2.9999999473550E-14
(PID.TID 0000.0001) %MON trcstat_ptracer41_mean       =   2.9999999473550E-14
(PID.TID 0000.0001) %MON trcstat_ptracer41_sd         =   6.3108872417681E-30
(PID.TID 0000.0001) %MON trcstat_ptracer41_del2       =   0.0000000000000E+00
(PID.TID 0000.0001) %MON trcstat_ptracer42_max        =   2.9999999473550E-14
(PID.TID 0000.0001) %MON trcstat_ptracer42_min        =   2.9999999473550E-14
(PID.TID 0000.0001) %MON trcstat_ptracer42_mean       =   2.9999999473550E-14
(PID.TID 0000.0001) %MON trcstat_ptracer42_sd         =   6.3108872417681E-30
(PID.TID 0000.0001) %MON trcstat_ptracer42_del2       =   0.0000000000000E+00
(PID.TID 0000.0001) %MON trcstat_ptracer43_max        =   2.9999999473550E-14
(PID.TID 0000.0001) %MON trcstat_ptracer43_min        =   2.9999999473550E-14
(PID.TID 0000.0001) %MON trcstat_ptracer43_mean       =   2.9999999473550E-14
(PID.TID 0000.0001) %MON trcstat_ptracer43_sd         =   6.3108872417681E-30
(PID.TID 0000.0001) %MON trcstat_ptracer43_del2       =   0.0000000000000E+00
(PID.TID 0000.0001) %MON trcstat_ptracer44_max        =   2.9999999473550E-14
(PID.TID 0000.0001) %MON trcstat_ptracer44_min        =   2.9999999473550E-14
(PID.TID 0000.0001) %MON trcstat_ptracer44_mean       =   2.9999999473550E-14
(PID.TID 0000.0001) %MON trcstat_ptracer44_sd         =   6.3108872417681E-30
(PID.TID 0000.0001) %MON trcstat_ptracer44_del2       =   0.0000000000000E+00
(PID.TID 0000.0001) %MON trcstat_ptracer45_max        =   2.9999999473550E-14
(PID.TID 0000.0001) %MON trcstat_ptracer45_min        =   2.9999999473550E-14
(PID.TID 0000.0001) %MON trcstat_ptracer45_mean       =   2.9999999473550E-14
(PID.TID 0000.0001) %MON trcstat_ptracer45_sd         =   6.3108872417681E-30
(PID.TID 0000.0001) %MON trcstat_ptracer45_del2       =   0.0000000000000E+00
(PID.TID 0000.0001) %MON trcstat_ptracer46_max        =   2.9999999473550E-14
(PID.TID 0000.0001) %MON trcstat_ptracer46_min        =   2.9999999473550E-14
(PID.TID 0000.0001) %MON trcstat_ptracer46_mean       =   2.9999999473550E-14
(PID.TID 0000.0001) %MON trcstat_ptracer46_sd         =   6.3108872417681E-30
(PID.TID 0000.0001) %MON trcstat_ptracer46_del2       =   0.0000000000000E+00
(PID.TID 0000.0001) %MON trcstat_ptracer47_max        =   2.9999999473550E-14
(PID.TID 0000.0001) %MON trcstat_ptracer47_min        =   2.9999999473550E-14
(PID.TID 0000.0001) %MON trcstat_ptracer47_mean       =   2.9999999473550E-14
(PID.TID 0000.0001) %MON trcstat_ptracer47_sd         =   6.3108872417681E-30
(PID.TID 0000.0001) %MON trcstat_ptracer47_del2       =   0.0000000000000E+00
(PID.TID 0000.0001) %MON trcstat_ptracer48_max        =   2.9999999473550E-14
(PID.TID 0000.0001) %MON trcstat_ptracer48_min        =   2.9999999473550E-14
(PID.TID 0000.0001) %MON trcstat_ptracer48_mean       =   2.9999999473550E-14
(PID.TID 0000.0001) %MON trcstat_ptracer48_sd         =   6.3108872417681E-30
(PID.TID 0000.0001) %MON trcstat_ptracer48_del2       =   0.0000000000000E+00
(PID.TID 0000.0001) %MON trcstat_ptracer49_max        =   2.9999999473550E-14
(PID.TID 0000.0001) %MON trcstat_ptracer49_min        =   2.9999999473550E-14
(PID.TID 0000.0001) %MON trcstat_ptracer49_mean       =   2.9999999473550E-14
(PID.TID 0000.0001) %MON trcstat_ptracer49_sd         =   6.3108872417681E-30
(PID.TID 0000.0001) %MON trcstat_ptracer49_del2       =   0.0000000000000E+00
(PID.TID 0000.0001) %MON trcstat_ptracer50_max        =   2.9999999473550E-14
(PID.TID 0000.0001) %MON trcstat_ptracer50_min        =   2.9999999473550E-14
(PID.TID 0000.0001) %MON trcstat_ptracer50_mean       =   2.9999999473550E-14
(PID.TID 0000.0001) %MON trcstat_ptracer50_sd         =   6.3108872417681E-30
(PID.TID 0000.0001) %MON trcstat_ptracer50_del2       =   0.0000000000000E+00
(PID.TID 0000.0001) %MON trcstat_ptracer51_max        =   2.9999999473550E-14
(PID.TID 0000.0001) %MON trcstat_ptracer51_min        =   2.9999999473550E-14
(PID.TID 0000.0001) %MON trcstat_ptracer51_mean       =   2.9999999473550E-14
(PID.TID 0000.0001) %MON trcstat_ptracer51_sd         =   6.3108872417681E-30
(PID.TID 0000.0001) %MON trcstat_ptracer51_del2       =   0.0000000000000E+00
(PID.TID 0000.0001) %MON trcstat_ptracer52_max        =   2.9999999473550E-14
(PID.TID 0000.0001) %MON trcstat_ptracer52_min        =   2.9999999473550E-14
(PID.TID 0000.0001) %MON trcstat_ptracer52_mean       =   2.9999999473550E-14
(PID.TID 0000.0001) %MON trcstat_ptracer52_sd         =   6.3108872417681E-30
(PID.TID 0000.0001) %MON trcstat_ptracer52_del2       =   0.0000000000000E+00
(PID.TID 0000.0001) %MON trcstat_ptracer53_max        =   2.9999999473550E-14
(PID.TID 0000.0001) %MON trcstat_ptracer53_min        =   2.9999999473550E-14
(PID.TID 0000.0001) %MON trcstat_ptracer53_mean       =   2.9999999473550E-14
(PID.TID 0000.0001) %MON trcstat_ptracer53_sd         =   6.3108872417681E-30
(PID.TID 0000.0001) %MON trcstat_ptracer53_del2       =   0.0000000000000E+00
(PID.TID 0000.0001) %MON trcstat_ptracer54_max        =   9.9999997171807E-10
(PID.TID 0000.0001) %MON trcstat_ptracer54_min        =   9.9999997171807E-10
(PID.TID 0000.0001) %MON trcstat_ptracer54_mean       =   9.9999997171807E-10
(PID.TID 0000.0001) %MON trcstat_ptracer54_sd         =   0.0000000000000E+00
(PID.TID 0000.0001) %MON trcstat_ptracer54_del2       =   0.0000000000000E+00
(PID.TID 0000.0001) %MON trcstat_ptracer55_max        =   9.9999997171807E-10
(PID.TID 0000.0001) %MON trcstat_ptracer55_min        =   9.9999997171807E-10
(PID.TID 0000.0001) %MON trcstat_ptracer55_mean       =   9.9999997171807E-10
(PID.TID 0000.0001) %MON trcstat_ptracer55_sd         =   0.0000000000000E+00
(PID.TID 0000.0001) %MON trcstat_ptracer55_del2       =   0.0000000000000E+00
(PID.TID 0000.0001) %MON trcstat_ptracer56_max        =   9.9999997171807E-10
(PID.TID 0000.0001) %MON trcstat_ptracer56_min        =   9.9999997171807E-10
(PID.TID 0000.0001) %MON trcstat_ptracer56_mean       =   9.9999997171807E-10
(PID.TID 0000.0001) %MON trcstat_ptracer56_sd         =   0.0000000000000E+00
(PID.TID 0000.0001) %MON trcstat_ptracer56_del2       =   0.0000000000000E+00
(PID.TID 0000.0001) %MON trcstat_ptracer57_max        =   9.9999997171807E-10
(PID.TID 0000.0001) %MON trcstat_ptracer57_min        =   9.9999997171807E-10
(PID.TID 0000.0001) %MON trcstat_ptracer57_mean       =   9.9999997171807E-10
(PID.TID 0000.0001) %MON trcstat_ptracer57_sd         =   0.0000000000000E+00
(PID.TID 0000.0001) %MON trcstat_ptracer57_del2       =   0.0000000000000E+00
(PID.TID 0000.0001) %MON trcstat_ptracer58_max        =   9.9999997171807E-10
(PID.TID 0000.0001) %MON trcstat_ptracer58_min        =   9.9999997171807E-10
(PID.TID 0000.0001) %MON trcstat_ptracer58_mean       =   9.9999997171807E-10
(PID.TID 0000.0001) %MON trcstat_ptracer58_sd         =   0.0000000000000E+00
(PID.TID 0000.0001) %MON trcstat_ptracer58_del2       =   0.0000000000000E+00
(PID.TID 0000.0001) %MON trcstat_ptracer59_max        =   9.9999997171807E-10
(PID.TID 0000.0001) %MON trcstat_ptracer59_min        =   9.9999997171807E-10
(PID.TID 0000.0001) %MON trcstat_ptracer59_mean       =   9.9999997171807E-10
(PID.TID 0000.0001) %MON trcstat_ptracer59_sd         =   0.0000000000000E+00
(PID.TID 0000.0001) %MON trcstat_ptracer59_del2       =   0.0000000000000E+00
(PID.TID 0000.0001) %MON trcstat_ptracer60_max        =   9.9999997171807E-10
(PID.TID 0000.0001) %MON trcstat_ptracer60_min        =   9.9999997171807E-10
(PID.TID 0000.0001) %MON trcstat_ptracer60_mean       =   9.9999997171807E-10
(PID.TID 0000.0001) %MON trcstat_ptracer60_sd         =   0.0000000000000E+00
(PID.TID 0000.0001) %MON trcstat_ptracer60_del2       =   0.0000000000000E+00
(PID.TID 0000.0001) %MON trcstat_ptracer61_max        =   9.9999997171807E-10
(PID.TID 0000.0001) %MON trcstat_ptracer61_min        =   9.9999997171807E-10
(PID.TID 0000.0001) %MON trcstat_ptracer61_mean       =   9.9999997171807E-10
(PID.TID 0000.0001) %MON trcstat_ptracer61_sd         =   0.0000000000000E+00
(PID.TID 0000.0001) %MON trcstat_ptracer61_del2       =   0.0000000000000E+00
(PID.TID 0000.0001) %MON trcstat_ptracer62_max        =   9.9999997171807E-10
(PID.TID 0000.0001) %MON trcstat_ptracer62_min        =   9.9999997171807E-10
(PID.TID 0000.0001) %MON trcstat_ptracer62_mean       =   9.9999997171807E-10
(PID.TID 0000.0001) %MON trcstat_ptracer62_sd         =   0.0000000000000E+00
(PID.TID 0000.0001) %MON trcstat_ptracer62_del2       =   0.0000000000000E+00
(PID.TID 0000.0001) %MON trcstat_ptracer63_max        =   9.9999997171807E-10
(PID.TID 0000.0001) %MON trcstat_ptracer63_min        =   9.9999997171807E-10
(PID.TID 0000.0001) %MON trcstat_ptracer63_mean       =   9.9999997171807E-10
(PID.TID 0000.0001) %MON trcstat_ptracer63_sd         =   0.0000000000000E+00
(PID.TID 0000.0001) %MON trcstat_ptracer63_del2       =   0.0000000000000E+00
(PID.TID 0000.0001) %MON trcstat_ptracer64_max        =   9.9999997171807E-10
(PID.TID 0000.0001) %MON trcstat_ptracer64_min        =   9.9999997171807E-10
(PID.TID 0000.0001) %MON trcstat_ptracer64_mean       =   9.9999997171807E-10
(PID.TID 0000.0001) %MON trcstat_ptracer64_sd         =   0.0000000000000E+00
(PID.TID 0000.0001) %MON trcstat_ptracer64_del2       =   0.0000000000000E+00
(PID.TID 0000.0001) %MON trcstat_ptracer65_max        =   9.9999997171807E-10
(PID.TID 0000.0001) %MON trcstat_ptracer65_min        =   9.9999997171807E-10
(PID.TID 0000.0001) %MON trcstat_ptracer65_mean       =   9.9999997171807E-10
(PID.TID 0000.0001) %MON trcstat_ptracer65_sd         =   0.0000000000000E+00
(PID.TID 0000.0001) %MON trcstat_ptracer65_del2       =   0.0000000000000E+00
(PID.TID 0000.0001) %MON trcstat_ptracer66_max        =   9.9999997171807E-10
(PID.TID 0000.0001) %MON trcstat_ptracer66_min        =   9.9999997171807E-10
(PID.TID 0000.0001) %MON trcstat_ptracer66_mean       =   9.9999997171807E-10
(PID.TID 0000.0001) %MON trcstat_ptracer66_sd         =   0.0000000000000E+00
(PID.TID 0000.0001) %MON trcstat_ptracer66_del2       =   0.0000000000000E+00
(PID.TID 0000.0001) %MON trcstat_ptracer67_max        =   9.9999997171807E-10
(PID.TID 0000.0001) %MON trcstat_ptracer67_min        =   9.9999997171807E-10
(PID.TID 0000.0001) %MON trcstat_ptracer67_mean       =   9.9999997171807E-10
(PID.TID 0000.0001) %MON trcstat_ptracer67_sd         =   0.0000000000000E+00
(PID.TID 0000.0001) %MON trcstat_ptracer67_del2       =   0.0000000000000E+00
(PID.TID 0000.0001) %MON trcstat_ptracer68_max        =   9.9999997171807E-10
(PID.TID 0000.0001) %MON trcstat_ptracer68_min        =   9.9999997171807E-10
(PID.TID 0000.0001) %MON trcstat_ptracer68_mean       =   9.9999997171807E-10
(PID.TID 0000.0001) %MON trcstat_ptracer68_sd         =   0.0000000000000E+00
(PID.TID 0000.0001) %MON trcstat_ptracer68_del2       =   0.0000000000000E+00
(PID.TID 0000.0001) %MON trcstat_ptracer69_max        =   0.0000000000000E+00
(PID.TID 0000.0001) %MON trcstat_ptracer69_min        =   0.0000000000000E+00
(PID.TID 0000.0001) %MON trcstat_ptracer69_mean       =   0.0000000000000E+00
(PID.TID 0000.0001) %MON trcstat_ptracer69_sd         =   0.0000000000000E+00
(PID.TID 0000.0001) %MON trcstat_ptracer69_del2       =   0.0000000000000E+00
(PID.TID 0000.0001) %MON trcstat_ptracer70_max        =   0.0000000000000E+00
(PID.TID 0000.0001) %MON trcstat_ptracer70_min        =   0.0000000000000E+00
(PID.TID 0000.0001) %MON trcstat_ptracer70_mean       =   0.0000000000000E+00
(PID.TID 0000.0001) %MON trcstat_ptracer70_sd         =   0.0000000000000E+00
(PID.TID 0000.0001) %MON trcstat_ptracer70_del2       =   0.0000000000000E+00
(PID.TID 0000.0001) %MON trcstat_ptracer71_max        =   2.7267783880234E-01
(PID.TID 0000.0001) %MON trcstat_ptracer71_min        =   0.0000000000000E+00
(PID.TID 0000.0001) %MON trcstat_ptracer71_mean       =   3.3067342309609E-02
(PID.TID 0000.0001) %MON trcstat_ptracer71_sd         =   8.3679774951305E-02
(PID.TID 0000.0001) %MON trcstat_ptracer71_del2       =   0.0000000000000E+00
(PID.TID 0000.0001) %MON trcstat_ptracer72_max        =   3.0367041006684E-02
(PID.TID 0000.0001) %MON trcstat_ptracer72_min        =   0.0000000000000E+00
(PID.TID 0000.0001) %MON trcstat_ptracer72_mean       =   1.4939297063913E-02
(PID.TID 0000.0001) %MON trcstat_ptracer72_sd         =   1.1118076667108E-02
(PID.TID 0000.0001) %MON trcstat_ptracer72_del2       =   0.0000000000000E+00
(PID.TID 0000.0001) %MON trcstat_ptracer73_max        =   1.7042364561348E-05
(PID.TID 0000.0001) %MON trcstat_ptracer73_min        =   0.0000000000000E+00
(PID.TID 0000.0001) %MON trcstat_ptracer73_mean       =   2.0667088931327E-06
(PID.TID 0000.0001) %MON trcstat_ptracer73_sd         =   5.2299859300251E-06
(PID.TID 0000.0001) %MON trcstat_ptracer73_del2       =   0.0000000000000E+00
(PID.TID 0000.0001) %MON trcstat_ptracer74_max        =   1.8979401374963E-06
(PID.TID 0000.0001) %MON trcstat_ptracer74_min        =   0.0000000000000E+00
(PID.TID 0000.0001) %MON trcstat_ptracer74_mean       =   9.3370607446663E-07
(PID.TID 0000.0001) %MON trcstat_ptracer74_sd         =   6.9487981699102E-07
(PID.TID 0000.0001) %MON trcstat_ptracer74_del2       =   0.0000000000000E+00
(PID.TID 0000.0001) // =======================================================
(PID.TID 0000.0001) // End MONITOR ptracers field statistics
(PID.TID 0000.0001) // =======================================================
 EXTERNAL_FIELDS_LOAD, it=         0 : Reading new data, i0,i1=   12    1 (prev=   12    0 )
(PID.TID 0000.0001)  MDS_READ_FIELD: opening global file: ../input/input/wind_u_mon.bin
(PID.TID 0000.0001)  MDS_READ_FIELD: opening global file: ../input/input/wind_u_mon.bin
(PID.TID 0000.0001)  MDS_READ_FIELD: opening global file: ../input/input/wind_v_mon.bin
(PID.TID 0000.0001)  MDS_READ_FIELD: opening global file: ../input/input/wind_v_mon.bin
(PID.TID 0000.0001)  MDS_READ_FIELD: opening global file: ../input/input/loc1_temp_monsurf.bin
(PID.TID 0000.0001)  MDS_READ_FIELD: opening global file: ../input/input/loc1_temp_monsurf.bin
(PID.TID 0000.0001) S/R DARWIN_FIELDS_LOAD: Reading forcing data  0.000000000000E+00          0
(PID.TID 0000.0001)  MDS_READ_FIELD: opening global file: ../input/input/loc1_FeFlux_monsurf.bin
(PID.TID 0000.0001)  MDS_READ_FIELD: opening global file: ../input/input/loc1_FeFlux_monsurf.bin
(PID.TID 0000.0001)  MDS_READ_FIELD: opening global file: ../input/input/loc1_PAR_monsurf.bin
(PID.TID 0000.0001)  MDS_READ_FIELD: opening global file: ../input/input/loc1_PAR_monsurf.bin
(PID.TID 0000.0001) // =======================================================
(PID.TID 0000.0001) // Begin MONITOR dynamic field statistics
(PID.TID 0000.0001) // =======================================================
(PID.TID 0000.0001) %MON time_tsnumber                =                     1
(PID.TID 0000.0001) %MON time_secondsf                =   1.0800000000000E+04
(PID.TID 0000.0001) %MON dynstat_eta_max              =   0.0000000000000E+00
(PID.TID 0000.0001) %MON dynstat_eta_min              =   0.0000000000000E+00
(PID.TID 0000.0001) %MON dynstat_eta_mean             =   0.0000000000000E+00
(PID.TID 0000.0001) %MON dynstat_eta_sd               =   0.0000000000000E+00
(PID.TID 0000.0001) %MON dynstat_eta_del2             =   0.0000000000000E+00
(PID.TID 0000.0001) %MON dynstat_uvel_max             =   0.0000000000000E+00
(PID.TID 0000.0001) %MON dynstat_uvel_min             =   0.0000000000000E+00
(PID.TID 0000.0001) %MON dynstat_uvel_mean            =   0.0000000000000E+00
(PID.TID 0000.0001) %MON dynstat_uvel_sd              =   0.0000000000000E+00
(PID.TID 0000.0001) %MON dynstat_uvel_del2            =   0.0000000000000E+00
(PID.TID 0000.0001) %MON dynstat_vvel_max             =   0.0000000000000E+00
(PID.TID 0000.0001) %MON dynstat_vvel_min             =   0.0000000000000E+00
(PID.TID 0000.0001) %MON dynstat_vvel_mean            =   0.0000000000000E+00
(PID.TID 0000.0001) %MON dynstat_vvel_sd              =   0.0000000000000E+00
(PID.TID 0000.0001) %MON dynstat_vvel_del2            =   0.0000000000000E+00
(PID.TID 0000.0001) %MON dynstat_wvel_max             =   0.0000000000000E+00
(PID.TID 0000.0001) %MON dynstat_wvel_min             =   0.0000000000000E+00
(PID.TID 0000.0001) %MON dynstat_wvel_mean            =   0.0000000000000E+00
(PID.TID 0000.0001) %MON dynstat_wvel_sd              =   0.0000000000000E+00
(PID.TID 0000.0001) %MON dynstat_wvel_del2            =   0.0000000000000E+00
(PID.TID 0000.0001) %MON dynstat_theta_max            =   6.5044922881521E+00
(PID.TID 0000.0001) %MON dynstat_theta_min            =  -9.3889137359886E-01
(PID.TID 0000.0001) %MON dynstat_theta_mean           =   1.5606152272304E-01
(PID.TID 0000.0001) %MON dynstat_theta_sd             =   2.0854479480469E+00
(PID.TID 0000.0001) %MON dynstat_theta_del2           =   0.0000000000000E+00
(PID.TID 0000.0001) %MON dynstat_salt_max             =   3.5000000000000E+01
(PID.TID 0000.0001) %MON dynstat_salt_min             =   3.5000000000000E+01
(PID.TID 0000.0001) %MON dynstat_salt_mean            =   3.5000000000000E+01
(PID.TID 0000.0001) %MON dynstat_salt_sd              =   7.1054273576010E-15
(PID.TID 0000.0001) %MON dynstat_salt_del2            =   0.0000000000000E+00
(PID.TID 0000.0001) %MON dynstat_sst_max              =   6.5044922881521E+00
(PID.TID 0000.0001) %MON dynstat_sst_min              =   6.5044922881521E+00
(PID.TID 0000.0001) %MON dynstat_sst_mean             =   6.5044922881521E+00
(PID.TID 0000.0001) %MON dynstat_sst_sd               =   8.8817841970013E-16
(PID.TID 0000.0001) %MON dynstat_sst_del2             =   0.0000000000000E+00
(PID.TID 0000.0001) %MON dynstat_sss_max              =   3.5000000000000E+01
(PID.TID 0000.0001) %MON dynstat_sss_min              =   3.5000000000000E+01
(PID.TID 0000.0001) %MON dynstat_sss_mean             =   3.5000000000000E+01
(PID.TID 0000.0001) %MON dynstat_sss_sd               =   0.0000000000000E+00
(PID.TID 0000.0001) %MON dynstat_sss_del2             =   0.0000000000000E+00
(PID.TID 0000.0001) %MON forcing_qnet_max             =   0.0000000000000E+00
(PID.TID 0000.0001) %MON forcing_qnet_min             =   0.0000000000000E+00
(PID.TID 0000.0001) %MON forcing_qnet_mean            =   0.0000000000000E+00
(PID.TID 0000.0001) %MON forcing_qnet_sd              =   0.0000000000000E+00
(PID.TID 0000.0001) %MON forcing_qnet_del2            =   0.0000000000000E+00
(PID.TID 0000.0001) %MON forcing_qsw_max              =   0.0000000000000E+00
(PID.TID 0000.0001) %MON forcing_qsw_min              =   0.0000000000000E+00
(PID.TID 0000.0001) %MON forcing_qsw_mean             =   0.0000000000000E+00
(PID.TID 0000.0001) %MON forcing_qsw_sd               =   0.0000000000000E+00
(PID.TID 0000.0001) %MON forcing_qsw_del2             =   0.0000000000000E+00
(PID.TID 0000.0001) %MON forcing_empmr_max            =   0.0000000000000E+00
(PID.TID 0000.0001) %MON forcing_empmr_min            =   0.0000000000000E+00
(PID.TID 0000.0001) %MON forcing_empmr_mean           =   0.0000000000000E+00
(PID.TID 0000.0001) %MON forcing_empmr_sd             =   0.0000000000000E+00
(PID.TID 0000.0001) %MON forcing_empmr_del2           =   0.0000000000000E+00
(PID.TID 0000.0001) %MON forcing_fu_max               =   2.2785000205040E+00
(PID.TID 0000.0001) %MON forcing_fu_min               =   2.2785000205040E+00
(PID.TID 0000.0001) %MON forcing_fu_mean              =   2.2785000205040E+00
(PID.TID 0000.0001) %MON forcing_fu_sd                =   0.0000000000000E+00
(PID.TID 0000.0001) %MON forcing_fu_del2              =   0.0000000000000E+00
(PID.TID 0000.0001) %MON forcing_fv_max               =   1.1411664783955E+00
(PID.TID 0000.0001) %MON forcing_fv_min               =   1.1411664783955E+00
(PID.TID 0000.0001) %MON forcing_fv_mean              =   1.1411664783955E+00
(PID.TID 0000.0001) %MON forcing_fv_sd                =   0.0000000000000E+00
(PID.TID 0000.0001) %MON forcing_fv_del2              =   0.0000000000000E+00
(PID.TID 0000.0001) %MON advcfl_uvel_max              =   0.0000000000000E+00
(PID.TID 0000.0001) %MON advcfl_vvel_max              =   0.0000000000000E+00
(PID.TID 0000.0001) %MON advcfl_wvel_max              =   0.0000000000000E+00
(PID.TID 0000.0001) %MON advcfl_W_hf_max              =   0.0000000000000E+00
(PID.TID 0000.0001) %MON pe_b_mean                    =   0.0000000000000E+00
(PID.TID 0000.0001) %MON ke_max                       =   0.0000000000000E+00
(PID.TID 0000.0001) %MON ke_mean                      =   0.0000000000000E+00
(PID.TID 0000.0001) %MON ke_vol                       =   4.1199767883485E+13
(PID.TID 0000.0001) %MON vort_r_min                   =   0.0000000000000E+00
(PID.TID 0000.0001) %MON vort_r_max                   =   0.0000000000000E+00
(PID.TID 0000.0001) %MON vort_a_mean                  =  -4.5067801836625E-05
(PID.TID 0000.0001) %MON vort_a_sd                    =  -4.1359030627651E-25
(PID.TID 0000.0001) %MON vort_p_mean                  =  -4.5067801836625E-05
(PID.TID 0000.0001) %MON vort_p_sd                    =   0.0000000000000E+00
(PID.TID 0000.0001) %MON surfExpan_theta_mean         =   0.0000000000000E+00
(PID.TID 0000.0001) %MON surfExpan_salt_mean          =   0.0000000000000E+00
(PID.TID 0000.0001) // =======================================================
(PID.TID 0000.0001) // End MONITOR dynamic field statistics
(PID.TID 0000.0001) // =======================================================
(PID.TID 0000.0001) // =======================================================
(PID.TID 0000.0001) // Begin MONITOR ptracer field statistics
(PID.TID 0000.0001) // =======================================================
(PID.TID 0000.0001) %MON trcstat_ptracer01_max        =   2.1623998992289E+03
(PID.TID 0000.0001) %MON trcstat_ptracer01_min        =   2.0886366621437E+03
(PID.TID 0000.0001) %MON trcstat_ptracer01_mean       =   2.1557233177720E+03
(PID.TID 0000.0001) %MON trcstat_ptracer01_sd         =   1.1604915722718E+01
(PID.TID 0000.0001) %MON trcstat_ptracer01_del2       =   0.0000000000000E+00
(PID.TID 0000.0001) %MON trcstat_ptracer02_max        =   1.5341574218045E+01
(PID.TID 0000.0001) %MON trcstat_ptracer02_min        =   1.1869083136818E+01
(PID.TID 0000.0001) %MON trcstat_ptracer02_mean       =   1.4471659182775E+01
(PID.TID 0000.0001) %MON trcstat_ptracer02_sd         =   9.1975572290492E-01
(PID.TID 0000.0001) %MON trcstat_ptracer02_del2       =   0.0000000000000E+00
(PID.TID 0000.0001) %MON trcstat_ptracer03_max        =   3.7940225031246E-02
(PID.TID 0000.0001) %MON trcstat_ptracer03_min        =   2.9788837295797E-13
(PID.TID 0000.0001) %MON trcstat_ptracer03_mean       =   7.7996286845383E-03
(PID.TID 0000.0001) %MON trcstat_ptracer03_sd         =   1.0788389017198E-02
(PID.TID 0000.0001) %MON trcstat_ptracer03_del2       =   0.0000000000000E+00
(PID.TID 0000.0001) %MON trcstat_ptracer04_max        =   1.9507699421602E-03
(PID.TID 0000.0001) %MON trcstat_ptracer04_min        =   5.9888556819423E-12
(PID.TID 0000.0001) %MON trcstat_ptracer04_mean       =   3.2069105226595E-04
(PID.TID 0000.0001) %MON trcstat_ptracer04_sd         =   4.6191670165774E-04
(PID.TID 0000.0001) %MON trcstat_ptracer04_del2       =   0.0000000000000E+00
(PID.TID 0000.0001) %MON trcstat_ptracer05_max        =   9.1627624670177E-04
(PID.TID 0000.0001) %MON trcstat_ptracer05_min        =   5.9696572764956E-14
(PID.TID 0000.0001) %MON trcstat_ptracer05_mean       =   5.7980387110501E-04
(PID.TID 0000.0001) %MON trcstat_ptracer05_sd         =   3.7871036793643E-04
(PID.TID 0000.0001) %MON trcstat_ptracer05_del2       =   0.0000000000000E+00
(PID.TID 0000.0001) %MON trcstat_ptracer06_max        =   6.2034196444962E-09
(PID.TID 0000.0001) %MON trcstat_ptracer06_min        =   5.7922870232493E-09
(PID.TID 0000.0001) %MON trcstat_ptracer06_mean       =   6.1245179013971E-09
(PID.TID 0000.0001) %MON trcstat_ptracer06_sd         =   1.1155242471852E-10
(PID.TID 0000.0001) %MON trcstat_ptracer06_del2       =   0.0000000000000E+00
(PID.TID 0000.0001) %MON trcstat_ptracer07_max        =   6.2748038709727E-09
(PID.TID 0000.0001) %MON trcstat_ptracer07_min        =   5.9653695443595E-09
(PID.TID 0000.0001) %MON trcstat_ptracer07_mean       =   6.2171732086936E-09
(PID.TID 0000.0001) %MON trcstat_ptracer07_sd         =   8.4322738478516E-11
(PID.TID 0000.0001) %MON trcstat_ptracer07_del2       =   0.0000000000000E+00
(PID.TID 0000.0001) %MON trcstat_ptracer08_max        =   6.3369057770229E-09
(PID.TID 0000.0001) %MON trcstat_ptracer08_min        =   6.1040536454473E-09
(PID.TID 0000.0001) %MON trcstat_ptracer08_mean       =   6.2948941069184E-09
(PID.TID 0000.0001) %MON trcstat_ptracer08_sd         =   6.3300706443899E-11
(PID.TID 0000.0001) %MON trcstat_ptracer08_del2       =   0.0000000000000E+00
(PID.TID 0000.0001) %MON trcstat_ptracer09_max        =   6.3917731372621E-09
(PID.TID 0000.0001) %MON trcstat_ptracer09_min        =   6.2183655724111E-09
(PID.TID 0000.0001) %MON trcstat_ptracer09_mean       =   6.3612977225397E-09
(PID.TID 0000.0001) %MON trcstat_ptracer09_sd         =   4.7106419749019E-11
(PID.TID 0000.0001) %MON trcstat_ptracer09_del2       =   0.0000000000000E+00
(PID.TID 0000.0001) %MON trcstat_ptracer10_max        =   6.4374579675952E-09
(PID.TID 0000.0001) %MON trcstat_ptracer10_min        =   6.3093370633331E-09
(PID.TID 0000.0001) %MON trcstat_ptracer10_mean       =   6.4155278300118E-09
(PID.TID 0000.0001) %MON trcstat_ptracer10_sd         =   3.4723525435577E-11
(PID.TID 0000.0001) %MON trcstat_ptracer10_del2       =   0.0000000000000E+00
(PID.TID 0000.0001) %MON trcstat_ptracer11_max        =   6.4744143265024E-09
(PID.TID 0000.0001) %MON trcstat_ptracer11_min        =   6.3803204208307E-09
(PID.TID 0000.0001) %MON trcstat_ptracer11_mean       =   6.4587141423471E-09
(PID.TID 0000.0001) %MON trcstat_ptracer11_sd         =   2.5417936168457E-11
(PID.TID 0000.0001) %MON trcstat_ptracer11_del2       =   0.0000000000000E+00
(PID.TID 0000.0001) %MON trcstat_ptracer12_max        =   6.5042160506076E-09
(PID.TID 0000.0001) %MON trcstat_ptracer12_min        =   6.4355183889339E-09
(PID.TID 0000.0001) %MON trcstat_ptracer12_mean       =   6.4930334812655E-09
(PID.TID 0000.0001) %MON trcstat_ptracer12_sd         =   1.8491467057105E-11
(PID.TID 0000.0001) %MON trcstat_ptracer12_del2       =   0.0000000000000E+00
(PID.TID 0000.0001) %MON trcstat_ptracer13_max        =   6.5281666352006E-09
(PID.TID 0000.0001) %MON trcstat_ptracer13_min        =   6.4783823257379E-09
(PID.TID 0000.0001) %MON trcstat_ptracer13_mean       =   6.5202600873511E-09
(PID.TID 0000.0001) %MON trcstat_ptracer13_sd         =   1.3343374318869E-11
(PID.TID 0000.0001) %MON trcstat_ptracer13_del2       =   0.0000000000000E+00
(PID.TID 0000.0001) %MON trcstat_ptracer14_max        =   6.5473899352641E-09
(PID.TID 0000.0001) %MON trcstat_ptracer14_min        =   6.5114799935274E-09
(PID.TID 0000.0001) %MON trcstat_ptracer14_mean       =   6.5418095206458E-09
(PID.TID 0000.0001) %MON trcstat_ptracer14_sd         =   9.5323562546074E-12
(PID.TID 0000.0001) %MON trcstat_ptracer14_del2       =   0.0000000000000E+00
(PID.TID 0000.0001) %MON trcstat_ptracer15_max        =   6.5627615117521E-09
(PID.TID 0000.0001) %MON trcstat_ptracer15_min        =   6.5370579303136E-09
(PID.TID 0000.0001) %MON trcstat_ptracer15_mean       =   6.5588200612192E-09
(PID.TID 0000.0001) %MON trcstat_ptracer15_sd         =   6.7191599615786E-12
(PID.TID 0000.0001) %MON trcstat_ptracer15_del2       =   0.0000000000000E+00
(PID.TID 0000.0001) %MON trcstat_ptracer16_max        =   6.5749822054044E-09
(PID.TID 0000.0001) %MON trcstat_ptracer16_min        =   6.5568037781944E-09
(PID.TID 0000.0001) %MON trcstat_ptracer16_mean       =   6.5721893955715E-09
(PID.TID 0000.0001) %MON trcstat_ptracer16_sd         =   4.6707245860477E-12
(PID.TID 0000.0001) %MON trcstat_ptracer16_del2       =   0.0000000000000E+00
(PID.TID 0000.0001) %MON trcstat_ptracer17_max        =   6.5892728535540E-09
(PID.TID 0000.0001) %MON trcstat_ptracer17_min        =   6.5719943209207E-09
(PID.TID 0000.0001) %MON trcstat_ptracer17_mean       =   6.5826484560557E-09
(PID.TID 0000.0001) %MON trcstat_ptracer17_sd         =   3.2044357306504E-12
(PID.TID 0000.0001) %MON trcstat_ptracer17_del2       =   0.0000000000000E+00
(PID.TID 0000.0001) %MON trcstat_ptracer18_max        =   6.6009501752477E-09
(PID.TID 0000.0001) %MON trcstat_ptracer18_min        =   6.5829723313279E-09
(PID.TID 0000.0001) %MON trcstat_ptracer18_mean       =   6.5907785068454E-09
(PID.TID 0000.0001) %MON trcstat_ptracer18_sd         =   2.2202992038161E-12
(PID.TID 0000.0001) %MON trcstat_ptracer18_del2       =   0.0000000000000E+00
(PID.TID 0000.0001) %MON trcstat_ptracer19_max        =   6.6098095775650E-09
(PID.TID 0000.0001) %MON trcstat_ptracer19_min        =   6.5836507882189E-09
(PID.TID 0000.0001) %MON trcstat_ptracer19_mean       =   6.5970454461049E-09
(PID.TID 0000.0001) %MON trcstat_ptracer19_sd         =   1.7160303985902E-12
(PID.TID 0000.0001) %MON trcstat_ptracer19_del2       =   0.0000000000000E+00
(PID.TID 0000.0001) %MON trcstat_ptracer20_max        =   6.6164503984555E-09
(PID.TID 0000.0001) %MON trcstat_ptracer20_min        =   6.5795977278144E-09
(PID.TID 0000.0001) %MON trcstat_ptracer20_mean       =   6.6018231722203E-09
(PID.TID 0000.0001) %MON trcstat_ptracer20_sd         =   1.7459422467064E-12
(PID.TID 0000.0001) %MON trcstat_ptracer20_del2       =   0.0000000000000E+00
(PID.TID 0000.0001) %MON trcstat_ptracer21_max        =   6.6191882244680E-09
(PID.TID 0000.0001) %MON trcstat_ptracer21_min        =   6.6165688855097E-09
(PID.TID 0000.0001) %MON trcstat_ptracer21_mean       =   6.6188253838241E-09
(PID.TID 0000.0001) %MON trcstat_ptracer21_sd         =   7.1562312208294E-13
(PID.TID 0000.0001) %MON trcstat_ptracer21_del2       =   0.0000000000000E+00
(PID.TID 0000.0001) %MON trcstat_ptracer22_max        =   8.5008568663058E-10
(PID.TID 0000.0001) %MON trcstat_ptracer22_min        =   6.7258439961462E-10
(PID.TID 0000.0001) %MON trcstat_ptracer22_mean       =   7.0647917205760E-10
(PID.TID 0000.0001) %MON trcstat_ptracer22_sd         =   4.7964363185551E-11
(PID.TID 0000.0001) %MON trcstat_ptracer22_del2       =   0.0000000000000E+00
(PID.TID 0000.0001) %MON trcstat_ptracer23_max        =   7.7612847900919E-10
(PID.TID 0000.0001) %MON trcstat_ptracer23_min        =   6.4194739254313E-10
(PID.TID 0000.0001) %MON trcstat_ptracer23_mean       =   6.6673485115122E-10
(PID.TID 0000.0001) %MON trcstat_ptracer23_sd         =   3.6341233128822E-11
(PID.TID 0000.0001) %MON trcstat_ptracer23_del2       =   0.0000000000000E+00
(PID.TID 0000.0001) %MON trcstat_ptracer24_max        =   7.1638513996267E-10
(PID.TID 0000.0001) %MON trcstat_ptracer24_min        =   6.1529421398080E-10
(PID.TID 0000.0001) %MON trcstat_ptracer24_mean       =   6.3338816718191E-10
(PID.TID 0000.0001) %MON trcstat_ptracer24_sd         =   2.7346292385868E-11
(PID.TID 0000.0001) %MON trcstat_ptracer24_del2       =   0.0000000000000E+00
(PID.TID 0000.0001) %MON trcstat_ptracer25_max        =   6.6747202733605E-10
(PID.TID 0000.0001) %MON trcstat_ptracer25_min        =   5.9174599070221E-10
(PID.TID 0000.0001) %MON trcstat_ptracer25_mean       =   6.0491650879882E-10
(PID.TID 0000.0001) %MON trcstat_ptracer25_sd         =   2.0472939769926E-11
(PID.TID 0000.0001) %MON trcstat_ptracer25_del2       =   0.0000000000000E+00
(PID.TID 0000.0001) %MON trcstat_ptracer26_max        =   6.2822422736413E-10
(PID.TID 0000.0001) %MON trcstat_ptracer26_min        =   5.7213876738326E-10
(PID.TID 0000.0001) %MON trcstat_ptracer26_mean       =   5.8164670349784E-10
(PID.TID 0000.0001) %MON trcstat_ptracer26_sd         =   1.5165929717762E-11
(PID.TID 0000.0001) %MON trcstat_ptracer26_del2       =   0.0000000000000E+00
(PID.TID 0000.0001) %MON trcstat_ptracer27_max        =   5.9758156545762E-10
(PID.TID 0000.0001) %MON trcstat_ptracer27_min        =   5.5627766913982E-10
(PID.TID 0000.0001) %MON trcstat_ptracer27_mean       =   5.6311594659380E-10
(PID.TID 0000.0001) %MON trcstat_ptracer27_sd         =   1.1173801339267E-11
(PID.TID 0000.0001) %MON trcstat_ptracer27_del2       =   0.0000000000000E+00
(PID.TID 0000.0001) %MON trcstat_ptracer28_max        =   5.7372934403063E-10
(PID.TID 0000.0001) %MON trcstat_ptracer28_min        =   5.4348722960971E-10
(PID.TID 0000.0001) %MON trcstat_ptracer28_mean       =   5.4838579541664E-10
(PID.TID 0000.0001) %MON trcstat_ptracer28_sd         =   8.1866789691391E-12
(PID.TID 0000.0001) %MON trcstat_ptracer28_del2       =   0.0000000000000E+00
(PID.TID 0000.0001) %MON trcstat_ptracer29_max        =   5.5520811302512E-10
(PID.TID 0000.0001) %MON trcstat_ptracer29_min        =   5.3320800875435E-10
(PID.TID 0000.0001) %MON trcstat_ptracer29_mean       =   5.3669972658027E-10
(PID.TID 0000.0001) %MON trcstat_ptracer29_sd         =   5.9591474641203E-12
(PID.TID 0000.0001) %MON trcstat_ptracer29_del2       =   0.0000000000000E+00
(PID.TID 0000.0001) %MON trcstat_ptracer30_max        =   5.4085189774421E-10
(PID.TID 0000.0001) %MON trcstat_ptracer30_min        =   5.2497823771227E-10
(PID.TID 0000.0001) %MON trcstat_ptracer30_mean       =   5.2745031308074E-10
(PID.TID 0000.0001) %MON trcstat_ptracer30_sd         =   4.3012405449415E-12
(PID.TID 0000.0001) %MON trcstat_ptracer30_del2       =   0.0000000000000E+00
(PID.TID 0000.0001) %MON trcstat_ptracer31_max        =   5.2974588380521E-10
(PID.TID 0000.0001) %MON trcstat_ptracer31_min        =   5.1841782517874E-10
(PID.TID 0000.0001) %MON trcstat_ptracer31_mean       =   5.2015102592753E-10
(PID.TID 0000.0001) %MON trcstat_ptracer31_sd         =   3.0687020104152E-12
(PID.TID 0000.0001) %MON trcstat_ptracer31_del2       =   0.0000000000000E+00
(PID.TID 0000.0001) %MON trcstat_ptracer32_max        =   5.2117310754964E-10
(PID.TID 0000.0001) %MON trcstat_ptracer32_min        =   5.1321463392997E-10
(PID.TID 0000.0001) %MON trcstat_ptracer32_mean       =   5.1441248308359E-10
(PID.TID 0000.0001) %MON trcstat_ptracer32_sd         =   2.1532292806036E-12
(PID.TID 0000.0001) %MON trcstat_ptracer32_del2       =   0.0000000000000E+00
(PID.TID 0000.0001) %MON trcstat_ptracer33_max        =   5.1457920951588E-10
(PID.TID 0000.0001) %MON trcstat_ptracer33_min        =   5.0911283310687E-10
(PID.TID 0000.0001) %MON trcstat_ptracer33_mean       =   5.0992311740879E-10
(PID.TID 0000.0001) %MON trcstat_ptracer33_sd         =   1.4745425100821E-12
(PID.TID 0000.0001) %MON trcstat_ptracer33_del2       =   0.0000000000000E+00
(PID.TID 0000.0001) %MON trcstat_ptracer34_max        =   5.0953231227623E-10
(PID.TID 0000.0001) %MON trcstat_ptracer34_min        =   5.0590309036149E-10
(PID.TID 0000.0001) %MON trcstat_ptracer34_mean       =   5.0643343265873E-10
(PID.TID 0000.0001) %MON trcstat_ptracer34_sd         =   9.7398017641540E-13
(PID.TID 0000.0001) %MON trcstat_ptracer34_del2       =   0.0000000000000E+00
(PID.TID 0000.0001) %MON trcstat_ptracer35_max        =   5.0569639155169E-10
(PID.TID 0000.0001) %MON trcstat_ptracer35_min        =   5.0308307562897E-10
(PID.TID 0000.0001) %MON trcstat_ptracer35_mean       =   5.0374345015290E-10
(PID.TID 0000.0001) %MON trcstat_ptracer35_sd         =   6.1123450295453E-13
(PID.TID 0000.0001) %MON trcstat_ptracer35_del2       =   0.0000000000000E+00
(PID.TID 0000.0001) %MON trcstat_ptracer36_max        =   5.0281126527721E-10
(PID.TID 0000.0001) %MON trcstat_ptracer36_min        =   4.9939684080809E-10
(PID.TID 0000.0001) %MON trcstat_ptracer36_mean       =   5.0169267984428E-10
(PID.TID 0000.0001) %MON trcstat_ptracer36_sd         =   3.6797804839238E-13
(PID.TID 0000.0001) %MON trcstat_ptracer36_del2       =   0.0000000000000E+00
(PID.TID 0000.0001) %MON trcstat_ptracer37_max        =   4.9956135345586E-10
(PID.TID 0000.0001) %MON trcstat_ptracer37_min        =   4.9936366750545E-10
(PID.TID 0000.0001) %MON trcstat_ptracer37_mean       =   4.9953396925753E-10
(PID.TID 0000.0001) %MON trcstat_ptracer37_sd         =   5.4009289855822E-14
(PID.TID 0000.0001) %MON trcstat_ptracer37_del2       =   0.0000000000000E+00
(PID.TID 0000.0001) %MON trcstat_ptracer38_max        =   3.8870711240841E-14
(PID.TID 0000.0001) %MON trcstat_ptracer38_min        =   2.9925108748562E-14
(PID.TID 0000.0001) %MON trcstat_ptracer38_mean       =   3.4785496085575E-14
(PID.TID 0000.0001) %MON trcstat_ptracer38_sd         =   3.1554927725949E-15
(PID.TID 0000.0001) %MON trcstat_ptracer38_del2       =   0.0000000000000E+00
(PID.TID 0000.0001) %MON trcstat_ptracer39_max        =   3.7351176174004E-14
(PID.TID 0000.0001) %MON trcstat_ptracer39_min        =   2.9925096752839E-14
(PID.TID 0000.0001) %MON trcstat_ptracer39_mean       =   3.3937692843915E-14
(PID.TID 0000.0001) %MON trcstat_ptracer39_sd         =   2.6081789875137E-15
(PID.TID 0000.0001) %MON trcstat_ptracer39_del2       =   0.0000000000000E+00
(PID.TID 0000.0001) %MON trcstat_ptracer40_max        =   3.6062795412179E-14
(PID.TID 0000.0001) %MON trcstat_ptracer40_min        =   2.9925088616876E-14
(PID.TID 0000.0001) %MON trcstat_ptracer40_mean       =   3.3227025451612E-14
(PID.TID 0000.0001) %MON trcstat_ptracer40_sd         =   2.1485034596646E-15
(PID.TID 0000.0001) %MON trcstat_ptracer40_del2       =   0.0000000000000E+00
(PID.TID 0000.0001) %MON trcstat_ptracer41_max        =   3.4980513896285E-14
(PID.TID 0000.0001) %MON trcstat_ptracer41_min        =   2.9925083155356E-14
(PID.TID 0000.0001) %MON trcstat_ptracer41_mean       =   3.2633667513322E-14
(PID.TID 0000.0001) %MON trcstat_ptracer41_sd         =   1.7641586768277E-15
(PID.TID 0000.0001) %MON trcstat_ptracer41_del2       =   0.0000000000000E+00
(PID.TID 0000.0001) %MON trcstat_ptracer42_max        =   3.4070384131471E-14
(PID.TID 0000.0001) %MON trcstat_ptracer42_min        =   2.9925079533205E-14
(PID.TID 0000.0001) %MON trcstat_ptracer42_mean       =   3.2138713338337E-14
(PID.TID 0000.0001) %MON trcstat_ptracer42_sd         =   1.4431399296117E-15
(PID.TID 0000.0001) %MON trcstat_ptracer42_del2       =   0.0000000000000E+00
(PID.TID 0000.0001) %MON trcstat_ptracer43_max        =   3.3308528103172E-14
(PID.TID 0000.0001) %MON trcstat_ptracer43_min        =   2.9925077172420E-14
(PID.TID 0000.0001) %MON trcstat_ptracer43_mean       =   3.1726716905429E-14
(PID.TID 0000.0001) %MON trcstat_ptracer43_sd         =   1.1756267784533E-15
(PID.TID 0000.0001) %MON trcstat_ptracer43_del2       =   0.0000000000000E+00
(PID.TID 0000.0001) %MON trcstat_ptracer44_max        =   3.2673472707791E-14
(PID.TID 0000.0001) %MON trcstat_ptracer44_min        =   2.9925075670177E-14
(PID.TID 0000.0001) %MON trcstat_ptracer44_mean       =   3.1384838715366E-14
(PID.TID 0000.0001) %MON trcstat_ptracer44_sd         =   9.5342720703089E-16
(PID.TID 0000.0001) %MON trcstat_ptracer44_del2       =   0.0000000000000E+00
(PID.TID 0000.0001) %MON trcstat_ptracer45_max        =   3.2146375772614E-14
(PID.TID 0000.0001) %MON trcstat_ptracer45_min        =   2.9925074742835E-14
(PID.TID 0000.0001) %MON trcstat_ptracer45_mean       =   3.1102051846448E-14
(PID.TID 0000.0001) %MON trcstat_ptracer45_sd         =   7.6946713413632E-16
(PID.TID 0000.0001) %MON trcstat_ptracer45_del2       =   0.0000000000000E+00
(PID.TID 0000.0001) %MON trcstat_ptracer46_max        =   3.1710608674197E-14
(PID.TID 0000.0001) %MON trcstat_ptracer46_min        =   2.9925074189638E-14
(PID.TID 0000.0001) %MON trcstat_ptracer46_mean       =   3.0868951423215E-14
(PID.TID 0000.0001) %MON trcstat_ptracer46_sd         =   6.1768601730076E-16
(PID.TID 0000.0001) %MON trcstat_ptracer46_del2       =   0.0000000000000E+00
(PID.TID 0000.0001) %MON trcstat_ptracer47_max        =   3.1351873776876E-14
(PID.TID 0000.0001) %MON trcstat_ptracer47_min        =   2.9925073867681E-14
(PID.TID 0000.0001) %MON trcstat_ptracer47_mean       =   3.0677556005931E-14
(PID.TID 0000.0001) %MON trcstat_ptracer47_sd         =   4.9292501737969E-16
(PID.TID 0000.0001) %MON trcstat_ptracer47_del2       =   0.0000000000000E+00
(PID.TID 0000.0001) %MON trcstat_ptracer48_max        =   3.1057848376699E-14
(PID.TID 0000.0001) %MON trcstat_ptracer48_min        =   2.9925073674861E-14
(PID.TID 0000.0001) %MON trcstat_ptracer48_mean       =   3.0521107708683E-14
(PID.TID 0000.0001) %MON trcstat_ptracer48_sd         =   3.9080641694736E-16
(PID.TID 0000.0001) %MON trcstat_ptracer48_del2       =   0.0000000000000E+00
(PID.TID 0000.0001) %MON trcstat_ptracer49_max        =   3.0818130688461E-14
(PID.TID 0000.0001) %MON trcstat_ptracer49_min        =   2.9925073538406E-14
(PID.TID 0000.0001) %MON trcstat_ptracer49_mean       =   3.0393890235465E-14
(PID.TID 0000.0001) %MON trcstat_ptracer49_sd         =   3.0762459923707E-16
(PID.TID 0000.0001) %MON trcstat_ptracer49_del2       =   0.0000000000000E+00
(PID.TID 0000.0001) %MON trcstat_ptracer50_max        =   3.0623833000789E-14
(PID.TID 0000.0001) %MON trcstat_ptracer50_min        =   2.9925073407242E-14
(PID.TID 0000.0001) %MON trcstat_ptracer50_mean       =   3.0291062831768E-14
(PID.TID 0000.0001) %MON trcstat_ptracer50_sd         =   2.4024448380991E-16
(PID.TID 0000.0001) %MON trcstat_ptracer50_del2       =   0.0000000000000E+00
(PID.TID 0000.0001) %MON trcstat_ptracer51_max        =   3.0467462272869E-14
(PID.TID 0000.0001) %MON trcstat_ptracer51_min        =   2.9925073246880E-14
(PID.TID 0000.0001) %MON trcstat_ptracer51_mean       =   3.0208519025884E-14
(PID.TID 0000.0001) %MON trcstat_ptracer51_sd         =   1.8602120598715E-16
(PID.TID 0000.0001) %MON trcstat_ptracer51_del2       =   0.0000000000000E+00
(PID.TID 0000.0001) %MON trcstat_ptracer52_max        =   3.0342631328211E-14
(PID.TID 0000.0001) %MON trcstat_ptracer52_min        =   2.9925073035888E-14
(PID.TID 0000.0001) %MON trcstat_ptracer52_mean       =   3.0142768037564E-14
(PID.TID 0000.0001) %MON trcstat_ptracer52_sd         =   1.4274584349242E-16
(PID.TID 0000.0001) %MON trcstat_ptracer52_del2       =   0.0000000000000E+00
(PID.TID 0000.0001) %MON trcstat_ptracer53_max        =   2.9973681529077E-14
(PID.TID 0000.0001) %MON trcstat_ptracer53_min        =   2.9961820371925E-14
(PID.TID 0000.0001) %MON trcstat_ptracer53_mean       =   2.9972038477160E-14
(PID.TID 0000.0001) %MON trcstat_ptracer53_sd         =   3.2405574261382E-18
(PID.TID 0000.0001) %MON trcstat_ptracer53_del2       =   0.0000000000000E+00
(PID.TID 0000.0001) %MON trcstat_ptracer54_max        =   1.2418996364279E-09
(PID.TID 0000.0001) %MON trcstat_ptracer54_min        =   9.9750205454334E-10
(PID.TID 0000.0001) %MON trcstat_ptracer54_mean       =   1.0054367240895E-09
(PID.TID 0000.0001) %MON trcstat_ptracer54_sd         =   4.2195635628861E-11
(PID.TID 0000.0001) %MON trcstat_ptracer54_del2       =   0.0000000000000E+00
(PID.TID 0000.0001) %MON trcstat_ptracer55_max        =   1.3873158291950E-09
(PID.TID 0000.0001) %MON trcstat_ptracer55_min        =   9.9750205454334E-10
(PID.TID 0000.0001) %MON trcstat_ptracer55_mean       =   1.0091770572238E-09
(PID.TID 0000.0001) %MON trcstat_ptracer55_sd         =   6.2727669041196E-11
(PID.TID 0000.0001) %MON trcstat_ptracer55_del2       =   0.0000000000000E+00
(PID.TID 0000.0001) %MON trcstat_ptracer56_max        =   1.2993234894836E-09
(PID.TID 0000.0001) %MON trcstat_ptracer56_min        =   9.9750205454334E-10
(PID.TID 0000.0001) %MON trcstat_ptracer56_mean       =   1.0072688782269E-09
(PID.TID 0000.0001) %MON trcstat_ptracer56_sd         =   5.1953152590703E-11
(PID.TID 0000.0001) %MON trcstat_ptracer56_del2       =   0.0000000000000E+00
(PID.TID 0000.0001) %MON trcstat_ptracer57_max        =   1.3486528659865E-09
(PID.TID 0000.0001) %MON trcstat_ptracer57_min        =   9.9750205454334E-10
(PID.TID 0000.0001) %MON trcstat_ptracer57_mean       =   1.0086567455728E-09
(PID.TID 0000.0001) %MON trcstat_ptracer57_sd         =   5.9443399773786E-11
(PID.TID 0000.0001) %MON trcstat_ptracer57_del2       =   0.0000000000000E+00
(PID.TID 0000.0001) %MON trcstat_ptracer58_max        =   1.2662046012159E-09
(PID.TID 0000.0001) %MON trcstat_ptracer58_min        =   9.9750205454334E-10
(PID.TID 0000.0001) %MON trcstat_ptracer58_mean       =   1.0063046055356E-09
(PID.TID 0000.0001) %MON trcstat_ptracer58_sd         =   4.6770471059945E-11
(PID.TID 0000.0001) %MON trcstat_ptracer58_del2       =   0.0000000000000E+00
(PID.TID 0000.0001) %MON trcstat_ptracer59_max        =   1.2022193142105E-09
(PID.TID 0000.0001) %MON trcstat_ptracer59_min        =   9.9750205454334E-10
(PID.TID 0000.0001) %MON trcstat_ptracer59_mean       =   1.0043663436108E-09
(PID.TID 0000.0001) %MON trcstat_ptracer59_sd         =   3.6414543893602E-11
(PID.TID 0000.0001) %MON trcstat_ptracer59_del2       =   0.0000000000000E+00
(PID.TID 0000.0001) %MON trcstat_ptracer60_max        =   1.1523083728935E-09
(PID.TID 0000.0001) %MON trcstat_ptracer60_min        =   9.9750205454334E-10
(PID.TID 0000.0001) %MON trcstat_ptracer60_mean       =   1.0027126573481E-09
(PID.TID 0000.0001) %MON trcstat_ptracer60_sd         =   2.7632238467238E-11
(PID.TID 0000.0001) %MON trcstat_ptracer60_del2       =   0.0000000000000E+00
(PID.TID 0000.0001) %MON trcstat_ptracer61_max        =   1.1137408686412E-09
(PID.TID 0000.0001) %MON trcstat_ptracer61_min        =   9.9750205454334E-10
(PID.TID 0000.0001) %MON trcstat_ptracer61_mean       =   1.0014237858748E-09
(PID.TID 0000.0001) %MON trcstat_ptracer61_sd         =   2.0788736289153E-11
(PID.TID 0000.0001) %MON trcstat_ptracer61_del2       =   0.0000000000000E+00
(PID.TID 0000.0001) %MON trcstat_ptracer62_max        =   1.0839747112758E-09
(PID.TID 0000.0001) %MON trcstat_ptracer62_min        =   9.9750205454334E-10
(PID.TID 0000.0001) %MON trcstat_ptracer62_mean       =   1.0004242016437E-09
(PID.TID 0000.0001) %MON trcstat_ptracer62_sd         =   1.5480445516274E-11
(PID.TID 0000.0001) %MON trcstat_ptracer62_del2       =   0.0000000000000E+00
(PID.TID 0000.0001) %MON trcstat_ptracer63_max        =   1.0611681194550E-09
(PID.TID 0000.0001) %MON trcstat_ptracer63_min        =   9.9750205454334E-10
(PID.TID 0000.0001) %MON trcstat_ptracer63_mean       =   9.9966910318313E-10
(PID.TID 0000.0001) %MON trcstat_ptracer63_sd         =   1.1465985210421E-11
(PID.TID 0000.0001) %MON trcstat_ptracer63_del2       =   0.0000000000000E+00
(PID.TID 0000.0001) %MON trcstat_ptracer64_max        =   1.0434797850297E-09
(PID.TID 0000.0001) %MON trcstat_ptracer64_min        =   9.9750205454334E-10
(PID.TID 0000.0001) %MON trcstat_ptracer64_mean       =   9.9906759998085E-10
(PID.TID 0000.0001) %MON trcstat_ptracer64_sd         =   8.2678824083480E-12
(PID.TID 0000.0001) %MON trcstat_ptracer64_del2       =   0.0000000000000E+00
(PID.TID 0000.0001) %MON trcstat_ptracer65_max        =   1.0299123473712E-09
(PID.TID 0000.0001) %MON trcstat_ptracer65_min        =   9.9750205454334E-10
(PID.TID 0000.0001) %MON trcstat_ptracer65_mean       =   9.9860590953627E-10
(PID.TID 0000.0001) %MON trcstat_ptracer65_sd         =   5.8094879948055E-12
(PID.TID 0000.0001) %MON trcstat_ptracer65_del2       =   0.0000000000000E+00
(PID.TID 0000.0001) %MON trcstat_ptracer66_max        =   1.0195522947351E-09
(PID.TID 0000.0001) %MON trcstat_ptracer66_min        =   9.9750205454334E-10
(PID.TID 0000.0001) %MON trcstat_ptracer66_mean       =   9.9825320215251E-10
(PID.TID 0000.0001) %MON trcstat_ptracer66_sd         =   3.9277226437494E-12
(PID.TID 0000.0001) %MON trcstat_ptracer66_del2       =   0.0000000000000E+00
(PID.TID 0000.0001) %MON trcstat_ptracer67_max        =   1.0116941692051E-09
(PID.TID 0000.0001) %MON trcstat_ptracer67_min        =   9.9750205454334E-10
(PID.TID 0000.0001) %MON trcstat_ptracer67_mean       =   9.9798559857966E-10
(PID.TID 0000.0001) %MON trcstat_ptracer67_sd         =   2.4987637478678E-12
(PID.TID 0000.0001) %MON trcstat_ptracer67_del2       =   0.0000000000000E+00
(PID.TID 0000.0001) %MON trcstat_ptracer68_max        =   1.0057914250224E-09
(PID.TID 0000.0001) %MON trcstat_ptracer68_min        =   9.9750205454334E-10
(PID.TID 0000.0001) %MON trcstat_ptracer68_mean       =   9.9778456006927E-10
(PID.TID 0000.0001) %MON trcstat_ptracer68_sd         =   1.4372110825341E-12
(PID.TID 0000.0001) %MON trcstat_ptracer68_del2       =   0.0000000000000E+00
(PID.TID 0000.0001) %MON trcstat_ptracer69_max        =   1.5097640463433E-10
(PID.TID 0000.0001) %MON trcstat_ptracer69_min        =   1.5056162650479E-10
(PID.TID 0000.0001) %MON trcstat_ptracer69_mean       =   1.5063586047828E-10
(PID.TID 0000.0001) %MON trcstat_ptracer69_sd         =   8.4369730260113E-14
(PID.TID 0000.0001) %MON trcstat_ptracer69_del2       =   0.0000000000000E+00
(PID.TID 0000.0001) %MON trcstat_ptracer70_max        =   1.0265146737157E-10
(PID.TID 0000.0001) %MON trcstat_ptracer70_min        =   9.8393608072654E-11
(PID.TID 0000.0001) %MON trcstat_ptracer70_mean       =   1.0180033281124E-10
(PID.TID 0000.0001) %MON trcstat_ptracer70_sd         =   3.0650316887043E-13
(PID.TID 0000.0001) %MON trcstat_ptracer70_del2       =   0.0000000000000E+00
(PID.TID 0000.0001) %MON trcstat_ptracer71_max        =   2.7232914683111E-01
(PID.TID 0000.0001) %MON trcstat_ptracer71_min        =   1.1957839939065E-11
(PID.TID 0000.0001) %MON trcstat_ptracer71_mean       =   3.3027788300457E-02
(PID.TID 0000.0001) %MON trcstat_ptracer71_sd         =   8.3578115642592E-02
(PID.TID 0000.0001) %MON trcstat_ptracer71_del2       =   0.0000000000000E+00
(PID.TID 0000.0001) %MON trcstat_ptracer72_max        =   3.0300098351446E-02
(PID.TID 0000.0001) %MON trcstat_ptracer72_min        =   3.0493547594438E-08
(PID.TID 0000.0001) %MON trcstat_ptracer72_mean       =   1.4911601310862E-02
(PID.TID 0000.0001) %MON trcstat_ptracer72_sd         =   1.1090662519150E-02
(PID.TID 0000.0001) %MON trcstat_ptracer72_del2       =   0.0000000000000E+00
(PID.TID 0000.0001) %MON trcstat_ptracer73_max        =   1.7020572272340E-05
(PID.TID 0000.0001) %MON trcstat_ptracer73_min        =   6.8739550836772E-16
(PID.TID 0000.0001) %MON trcstat_ptracer73_mean       =   2.0642367675130E-06
(PID.TID 0000.0001) %MON trcstat_ptracer73_sd         =   5.2236322232362E-06
(PID.TID 0000.0001) %MON trcstat_ptracer73_del2       =   0.0000000000000E+00
(PID.TID 0000.0001) %MON trcstat_ptracer74_max        =   1.8937562210004E-06
(PID.TID 0000.0001) %MON trcstat_ptracer74_min        =   1.9058149828049E-12
(PID.TID 0000.0001) %MON trcstat_ptracer74_mean       =   9.3197508985916E-07
(PID.TID 0000.0001) %MON trcstat_ptracer74_sd         =   6.9316643269962E-07
(PID.TID 0000.0001) %MON trcstat_ptracer74_del2       =   0.0000000000000E+00
(PID.TID 0000.0001) // =======================================================
(PID.TID 0000.0001) // End MONITOR ptracers field statistics
(PID.TID 0000.0001) // =======================================================
(PID.TID 0000.0001) // =======================================================
(PID.TID 0000.0001) // Begin MONITOR dynamic field statistics
(PID.TID 0000.0001) // =======================================================
(PID.TID 0000.0001) %MON time_tsnumber                =                     2
(PID.TID 0000.0001) %MON time_secondsf                =   2.1600000000000E+04
(PID.TID 0000.0001) %MON dynstat_eta_max              =   0.0000000000000E+00
(PID.TID 0000.0001) %MON dynstat_eta_min              =   0.0000000000000E+00
(PID.TID 0000.0001) %MON dynstat_eta_mean             =   0.0000000000000E+00
(PID.TID 0000.0001) %MON dynstat_eta_sd               =   0.0000000000000E+00
(PID.TID 0000.0001) %MON dynstat_eta_del2             =   0.0000000000000E+00
(PID.TID 0000.0001) %MON dynstat_uvel_max             =   0.0000000000000E+00
(PID.TID 0000.0001) %MON dynstat_uvel_min             =   0.0000000000000E+00
(PID.TID 0000.0001) %MON dynstat_uvel_mean            =   0.0000000000000E+00
(PID.TID 0000.0001) %MON dynstat_uvel_sd              =   0.0000000000000E+00
(PID.TID 0000.0001) %MON dynstat_uvel_del2            =   0.0000000000000E+00
(PID.TID 0000.0001) %MON dynstat_vvel_max             =   0.0000000000000E+00
(PID.TID 0000.0001) %MON dynstat_vvel_min             =   0.0000000000000E+00
(PID.TID 0000.0001) %MON dynstat_vvel_mean            =   0.0000000000000E+00
(PID.TID 0000.0001) %MON dynstat_vvel_sd              =   0.0000000000000E+00
(PID.TID 0000.0001) %MON dynstat_vvel_del2            =   0.0000000000000E+00
(PID.TID 0000.0001) %MON dynstat_wvel_max             =   0.0000000000000E+00
(PID.TID 0000.0001) %MON dynstat_wvel_min             =   0.0000000000000E+00
(PID.TID 0000.0001) %MON dynstat_wvel_mean            =   0.0000000000000E+00
(PID.TID 0000.0001) %MON dynstat_wvel_sd              =   0.0000000000000E+00
(PID.TID 0000.0001) %MON dynstat_wvel_del2            =   0.0000000000000E+00
(PID.TID 0000.0001) %MON dynstat_theta_max            =   6.5021898417791E+00
(PID.TID 0000.0001) %MON dynstat_theta_min            =  -9.3888275713119E-01
(PID.TID 0000.0001) %MON dynstat_theta_mean           =   1.5608386202520E-01
(PID.TID 0000.0001) %MON dynstat_theta_sd             =   2.0855057882648E+00
(PID.TID 0000.0001) %MON dynstat_theta_del2           =   0.0000000000000E+00
(PID.TID 0000.0001) %MON dynstat_salt_max             =   3.5000000000000E+01
(PID.TID 0000.0001) %MON dynstat_salt_min             =   3.5000000000000E+01
(PID.TID 0000.0001) %MON dynstat_salt_mean            =   3.5000000000000E+01
(PID.TID 0000.0001) %MON dynstat_salt_sd              =   7.1054273576010E-15
(PID.TID 0000.0001) %MON dynstat_salt_del2            =   0.0000000000000E+00
(PID.TID 0000.0001) %MON dynstat_sst_max              =   6.5021898417791E+00
(PID.TID 0000.0001) %MON dynstat_sst_min              =   6.5021898417791E+00
(PID.TID 0000.0001) %MON dynstat_sst_mean             =   6.5021898417791E+00
(PID.TID 0000.0001) %MON dynstat_sst_sd               =   0.0000000000000E+00
(PID.TID 0000.0001) %MON dynstat_sst_del2             =   0.0000000000000E+00
(PID.TID 0000.0001) %MON dynstat_sss_max              =   3.5000000000000E+01
(PID.TID 0000.0001) %MON dynstat_sss_min              =   3.5000000000000E+01
(PID.TID 0000.0001) %MON dynstat_sss_mean             =   3.5000000000000E+01
(PID.TID 0000.0001) %MON dynstat_sss_sd               =   0.0000000000000E+00
(PID.TID 0000.0001) %MON dynstat_sss_del2             =   0.0000000000000E+00
(PID.TID 0000.0001) %MON forcing_qnet_max             =   0.0000000000000E+00
(PID.TID 0000.0001) %MON forcing_qnet_min             =   0.0000000000000E+00
(PID.TID 0000.0001) %MON forcing_qnet_mean            =   0.0000000000000E+00
(PID.TID 0000.0001) %MON forcing_qnet_sd              =   0.0000000000000E+00
(PID.TID 0000.0001) %MON forcing_qnet_del2            =   0.0000000000000E+00
(PID.TID 0000.0001) %MON forcing_qsw_max              =   0.0000000000000E+00
(PID.TID 0000.0001) %MON forcing_qsw_min              =   0.0000000000000E+00
(PID.TID 0000.0001) %MON forcing_qsw_mean             =   0.0000000000000E+00
(PID.TID 0000.0001) %MON forcing_qsw_sd               =   0.0000000000000E+00
(PID.TID 0000.0001) %MON forcing_qsw_del2             =   0.0000000000000E+00
(PID.TID 0000.0001) %MON forcing_empmr_max            =   0.0000000000000E+00
(PID.TID 0000.0001) %MON forcing_empmr_min            =   0.0000000000000E+00
(PID.TID 0000.0001) %MON forcing_empmr_mean           =   0.0000000000000E+00
(PID.TID 0000.0001) %MON forcing_empmr_sd             =   0.0000000000000E+00
(PID.TID 0000.0001) %MON forcing_empmr_del2           =   0.0000000000000E+00
(PID.TID 0000.0001) %MON forcing_fu_max               =   2.2750347450376E+00
(PID.TID 0000.0001) %MON forcing_fu_min               =   2.2750347450376E+00
(PID.TID 0000.0001) %MON forcing_fu_mean              =   2.2750347450376E+00
(PID.TID 0000.0001) %MON forcing_fu_sd                =   0.0000000000000E+00
(PID.TID 0000.0001) %MON forcing_fu_del2              =   0.0000000000000E+00
(PID.TID 0000.0001) %MON forcing_fv_max               =   1.1445845323304E+00
(PID.TID 0000.0001) %MON forcing_fv_min               =   1.1445845323304E+00
(PID.TID 0000.0001) %MON forcing_fv_mean              =   1.1445845323304E+00
(PID.TID 0000.0001) %MON forcing_fv_sd                =   0.0000000000000E+00
(PID.TID 0000.0001) %MON forcing_fv_del2              =   0.0000000000000E+00
(PID.TID 0000.0001) %MON advcfl_uvel_max              =   0.0000000000000E+00
(PID.TID 0000.0001) %MON advcfl_vvel_max              =   0.0000000000000E+00
(PID.TID 0000.0001) %MON advcfl_wvel_max              =   0.0000000000000E+00
(PID.TID 0000.0001) %MON advcfl_W_hf_max              =   0.0000000000000E+00
(PID.TID 0000.0001) %MON pe_b_mean                    =   0.0000000000000E+00
(PID.TID 0000.0001) %MON ke_max                       =   0.0000000000000E+00
(PID.TID 0000.0001) %MON ke_mean                      =   0.0000000000000E+00
(PID.TID 0000.0001) %MON ke_vol                       =   4.1199767883485E+13
(PID.TID 0000.0001) %MON vort_r_min                   =   0.0000000000000E+00
(PID.TID 0000.0001) %MON vort_r_max                   =   0.0000000000000E+00
(PID.TID 0000.0001) %MON vort_a_mean                  =  -4.5067801836625E-05
(PID.TID 0000.0001) %MON vort_a_sd                    =  -4.1359030627651E-25
(PID.TID 0000.0001) %MON vort_p_mean                  =  -4.5067801836625E-05
(PID.TID 0000.0001) %MON vort_p_sd                    =   0.0000000000000E+00
(PID.TID 0000.0001) %MON surfExpan_theta_mean         =   0.0000000000000E+00
(PID.TID 0000.0001) %MON surfExpan_salt_mean          =   0.0000000000000E+00
(PID.TID 0000.0001) // =======================================================
(PID.TID 0000.0001) // End MONITOR dynamic field statistics
(PID.TID 0000.0001) // =======================================================
(PID.TID 0000.0001) // =======================================================
(PID.TID 0000.0001) // Begin MONITOR ptracer field statistics
(PID.TID 0000.0001) // =======================================================
(PID.TID 0000.0001) %MON trcstat_ptracer01_max        =   2.1623998961148E+03
(PID.TID 0000.0001) %MON trcstat_ptracer01_min        =   2.0908348083022E+03
(PID.TID 0000.0001) %MON trcstat_ptracer01_mean       =   2.1557233177740E+03
(PID.TID 0000.0001) %MON trcstat_ptracer01_sd         =   1.1578675045932E+01
(PID.TID 0000.0001) %MON trcstat_ptracer01_del2       =   0.0000000000000E+00
(PID.TID 0000.0001) %MON trcstat_ptracer02_max        =   1.5341548029387E+01
(PID.TID 0000.0001) %MON trcstat_ptracer02_min        =   1.1875487400747E+01
(PID.TID 0000.0001) %MON trcstat_ptracer02_mean       =   1.4471756603766E+01
(PID.TID 0000.0001) %MON trcstat_ptracer02_sd         =   9.1962394354274E-01
(PID.TID 0000.0001) %MON trcstat_ptracer02_del2       =   0.0000000000000E+00
(PID.TID 0000.0001) %MON trcstat_ptracer03_max        =   3.7915515935121E-02
(PID.TID 0000.0001) %MON trcstat_ptracer03_min        =   1.0362752811260E-11
(PID.TID 0000.0001) %MON trcstat_ptracer03_mean       =   7.7813260946314E-03
(PID.TID 0000.0001) %MON trcstat_ptracer03_sd         =   1.0767424379271E-02
(PID.TID 0000.0001) %MON trcstat_ptracer03_del2       =   0.0000000000000E+00
(PID.TID 0000.0001) %MON trcstat_ptracer04_max        =   1.8088132633126E-03
(PID.TID 0000.0001) %MON trcstat_ptracer04_min        =   1.2809193580688E-10
(PID.TID 0000.0001) %MON trcstat_ptracer04_mean       =   3.0871838111680E-04
(PID.TID 0000.0001) %MON trcstat_ptracer04_sd         =   4.5018802550468E-04
(PID.TID 0000.0001) %MON trcstat_ptracer04_del2       =   0.0000000000000E+00
(PID.TID 0000.0001) %MON trcstat_ptracer05_max        =   9.1625936258450E-04
(PID.TID 0000.0001) %MON trcstat_ptracer05_min        =   1.8653977509935E-13
(PID.TID 0000.0001) %MON trcstat_ptracer05_mean       =   5.7980068745616E-04
(PID.TID 0000.0001) %MON trcstat_ptracer05_sd         =   3.7870797205172E-04
(PID.TID 0000.0001) %MON trcstat_ptracer05_del2       =   0.0000000000000E+00
(PID.TID 0000.0001) %MON trcstat_ptracer06_max        =   5.8312977042154E-09
(PID.TID 0000.0001) %MON trcstat_ptracer06_min        =   5.2164634594256E-09
(PID.TID 0000.0001) %MON trcstat_ptracer06_mean       =   5.6960804829636E-09
(PID.TID 0000.0001) %MON trcstat_ptracer06_sd         =   1.6764968751340E-10
(PID.TID 0000.0001) %MON trcstat_ptracer06_del2       =   0.0000000000000E+00
(PID.TID 0000.0001) %MON trcstat_ptracer07_max        =   5.9675928852695E-09
(PID.TID 0000.0001) %MON trcstat_ptracer07_min        =   5.4764529077262E-09
(PID.TID 0000.0001) %MON trcstat_ptracer07_mean       =   5.8644888631992E-09
(PID.TID 0000.0001) %MON trcstat_ptracer07_sd         =   1.3365509683632E-10
(PID.TID 0000.0001) %MON trcstat_ptracer07_del2       =   0.0000000000000E+00
(PID.TID 0000.0001) %MON trcstat_ptracer08_max        =   6.0842147522920E-09
(PID.TID 0000.0001) %MON trcstat_ptracer08_min        =   5.6984432033303E-09
(PID.TID 0000.0001) %MON trcstat_ptracer08_mean       =   6.0066322351281E-09
(PID.TID 0000.0001) %MON trcstat_ptracer08_sd         =   1.0456853976308E-10
(PID.TID 0000.0001) %MON trcstat_ptracer08_del2       =   0.0000000000000E+00
(PID.TID 0000.0001) %MON trcstat_ptracer09_max        =   6.1844552559052E-09
(PID.TID 0000.0001) %MON trcstat_ptracer09_min        =   5.8866568840330E-09
(PID.TID 0000.0001) %MON trcstat_ptracer09_mean       =   6.1267859489191E-09
(PID.TID 0000.0001) %MON trcstat_ptracer09_sd         =   8.0462013542285E-11
(PID.TID 0000.0001) %MON trcstat_ptracer09_del2       =   0.0000000000000E+00
(PID.TID 0000.0001) %MON trcstat_ptracer10_max        =   6.2679884715513E-09
(PID.TID 0000.0001) %MON trcstat_ptracer10_min        =   6.0414259760449E-09
(PID.TID 0000.0001) %MON trcstat_ptracer10_mean       =   6.2256571294540E-09
(PID.TID 0000.0001) %MON trcstat_ptracer10_sd         =   6.1004744200691E-11
(PID.TID 0000.0001) %MON trcstat_ptracer10_del2       =   0.0000000000000E+00
(PID.TID 0000.0001) %MON trcstat_ptracer11_max        =   6.3363853782598E-09
(PID.TID 0000.0001) %MON trcstat_ptracer11_min        =   6.1661872534803E-09
(PID.TID 0000.0001) %MON trcstat_ptracer11_mean       =   6.3056576228146E-09
(PID.TID 0000.0001) %MON trcstat_ptracer11_sd         =   4.5633263121050E-11
(PID.TID 0000.0001) %MON trcstat_ptracer11_del2       =   0.0000000000000E+00
(PID.TID 0000.0001) %MON trcstat_ptracer12_max        =   6.3921108395900E-09
(PID.TID 0000.0001) %MON trcstat_ptracer12_min        =   6.2657247666932E-09
(PID.TID 0000.0001) %MON trcstat_ptracer12_mean       =   6.3700243704202E-09
(PID.TID 0000.0001) %MON trcstat_ptracer12_sd         =   3.3760084467628E-11
(PID.TID 0000.0001) %MON trcstat_ptracer12_del2       =   0.0000000000000E+00
(PID.TID 0000.0001) %MON trcstat_ptracer13_max        =   6.4372906724162E-09
(PID.TID 0000.0001) %MON trcstat_ptracer13_min        =   6.3443508397593E-09
(PID.TID 0000.0001) %MON trcstat_ptracer13_mean       =   6.4215892317137E-09
(PID.TID 0000.0001) %MON trcstat_ptracer13_sd         =   2.4678840949893E-11
(PID.TID 0000.0001) %MON trcstat_ptracer13_del2       =   0.0000000000000E+00
(PID.TID 0000.0001) %MON trcstat_ptracer14_max        =   6.4738454783644E-09
(PID.TID 0000.0001) %MON trcstat_ptracer14_min        =   6.4060493694429E-09
(PID.TID 0000.0001) %MON trcstat_ptracer14_mean       =   6.4627206256841E-09
(PID.TID 0000.0001) %MON trcstat_ptracer14_sd         =   1.7807234771364E-11
(PID.TID 0000.0001) %MON trcstat_ptracer14_del2       =   0.0000000000000E+00
(PID.TID 0000.0001) %MON trcstat_ptracer15_max        =   6.5032557673936E-09
(PID.TID 0000.0001) %MON trcstat_ptracer15_min        =   6.4543421500941E-09
(PID.TID 0000.0001) %MON trcstat_ptracer15_mean       =   6.4953943782260E-09
(PID.TID 0000.0001) %MON trcstat_ptracer15_sd         =   1.2645187745572E-11
(PID.TID 0000.0001) %MON trcstat_ptracer15_del2       =   0.0000000000000E+00
(PID.TID 0000.0001) %MON trcstat_ptracer16_max        =   6.5267729767069E-09
(PID.TID 0000.0001) %MON trcstat_ptracer16_min        =   6.4919589473814E-09
(PID.TID 0000.0001) %MON trcstat_ptracer16_mean       =   6.5212070568112E-09
(PID.TID 0000.0001) %MON trcstat_ptracer16_sd         =   8.8358303327353E-12
(PID.TID 0000.0001) %MON trcstat_ptracer16_del2       =   0.0000000000000E+00
(PID.TID 0000.0001) %MON trcstat_ptracer17_max        =   6.5481542688477E-09
(PID.TID 0000.0001) %MON trcstat_ptracer17_min        =   6.5211061773713E-09
(PID.TID 0000.0001) %MON trcstat_ptracer17_mean       =   6.5414891708994E-09
(PID.TID 0000.0001) %MON trcstat_ptracer17_sd         =   6.0604837757923E-12
(PID.TID 0000.0001) %MON trcstat_ptracer17_del2       =   0.0000000000000E+00
(PID.TID 0000.0001) %MON trcstat_ptracer18_max        =   6.5692417575417E-09
(PID.TID 0000.0001) %MON trcstat_ptracer18_min        =   6.5435484441555E-09
(PID.TID 0000.0001) %MON trcstat_ptracer18_mean       =   6.5573142778366E-09
(PID.TID 0000.0001) %MON trcstat_ptracer18_sd         =   4.1031918301369E-12
(PID.TID 0000.0001) %MON trcstat_ptracer18_del2       =   0.0000000000000E+00
(PID.TID 0000.0001) %MON trcstat_ptracer19_max        =   6.5846474547804E-09
(PID.TID 0000.0001) %MON trcstat_ptracer19_min        =   6.5578442652847E-09
(PID.TID 0000.0001) %MON trcstat_ptracer19_mean       =   6.5695533013848E-09
(PID.TID 0000.0001) %MON trcstat_ptracer19_sd         =   2.8477283906057E-12
(PID.TID 0000.0001) %MON trcstat_ptracer19_del2       =   0.0000000000000E+00
(PID.TID 0000.0001) %MON trcstat_ptracer20_max        =   6.5953515624951E-09
(PID.TID 0000.0001) %MON trcstat_ptracer20_min        =   6.5572767788340E-09
(PID.TID 0000.0001) %MON trcstat_ptracer20_mean       =   6.5789118600331E-09
(PID.TID 0000.0001) %MON trcstat_ptracer20_sd         =   2.3163574324752E-12
(PID.TID 0000.0001) %MON trcstat_ptracer20_del2       =   0.0000000000000E+00
(PID.TID 0000.0001) %MON trcstat_ptracer21_max        =   6.6133814384756E-09
(PID.TID 0000.0001) %MON trcstat_ptracer21_min        =   6.6081511445526E-09
(PID.TID 0000.0001) %MON trcstat_ptracer21_mean       =   6.6126564869083E-09
(PID.TID 0000.0001) %MON trcstat_ptracer21_sd         =   1.4297717904008E-12
(PID.TID 0000.0001) %MON trcstat_ptracer21_del2       =   0.0000000000000E+00
(PID.TID 0000.0001) %MON trcstat_ptracer22_max        =   1.0914663727713E-09
(PID.TID 0000.0001) %MON trcstat_ptracer22_min        =   8.2396284441876E-10
(PID.TID 0000.0001) %MON trcstat_ptracer22_mean       =   8.8217899282159E-10
(PID.TID 0000.0001) %MON trcstat_ptracer22_sd         =   7.2457521152477E-11
(PID.TID 0000.0001) %MON trcstat_ptracer22_del2       =   0.0000000000000E+00
(PID.TID 0000.0001) %MON trcstat_ptracer23_max        =   9.7977823276125E-10
(PID.TID 0000.0001) %MON trcstat_ptracer23_min        =   7.6546705925417E-10
(PID.TID 0000.0001) %MON trcstat_ptracer23_mean       =   8.0992123897977E-10
(PID.TID 0000.0001) %MON trcstat_ptracer23_sd         =   5.7927311872107E-11
(PID.TID 0000.0001) %MON trcstat_ptracer23_del2       =   0.0000000000000E+00
(PID.TID 0000.0001) %MON trcstat_ptracer24_max        =   8.8401641365431E-10
(PID.TID 0000.0001) %MON trcstat_ptracer24_min        =   7.1541475672245E-10
(PID.TID 0000.0001) %MON trcstat_ptracer24_mean       =   7.4891974781720E-10
(PID.TID 0000.0001) %MON trcstat_ptracer24_sd         =   4.5454696761645E-11
(PID.TID 0000.0001) %MON trcstat_ptracer24_del2       =   0.0000000000000E+00
(PID.TID 0000.0001) %MON trcstat_ptracer25_max        =   8.0311256245903E-10
(PID.TID 0000.0001) %MON trcstat_ptracer25_min        =   6.7239308254631E-10
(PID.TID 0000.0001) %MON trcstat_ptracer25_mean       =   6.9737622622822E-10
(PID.TID 0000.0001) %MON trcstat_ptracer25_sd         =   3.5171721805044E-11
(PID.TID 0000.0001) %MON trcstat_ptracer25_del2       =   0.0000000000000E+00
(PID.TID 0000.0001) %MON trcstat_ptracer26_max        =   7.3617647844264E-10
(PID.TID 0000.0001) %MON trcstat_ptracer26_min        =   6.3654191859796E-10
(PID.TID 0000.0001) %MON trcstat_ptracer26_mean       =   6.5493701103709E-10
(PID.TID 0000.0001) %MON trcstat_ptracer26_sd         =   2.6795791494677E-11
(PID.TID 0000.0001) %MON trcstat_ptracer26_del2       =   0.0000000000000E+00
(PID.TID 0000.0001) %MON trcstat_ptracer27_max        =   6.8220630072716E-10
(PID.TID 0000.0001) %MON trcstat_ptracer27_min        =   6.0718702506568E-10
(PID.TID 0000.0001) %MON trcstat_ptracer27_mean       =   6.2060133688615E-10
(PID.TID 0000.0001) %MON trcstat_ptracer27_sd         =   2.0178804357709E-11
(PID.TID 0000.0001) %MON trcstat_ptracer27_del2       =   0.0000000000000E+00
(PID.TID 0000.0001) %MON trcstat_ptracer28_max        =   6.3912041903763E-10
(PID.TID 0000.0001) %MON trcstat_ptracer28_min        =   5.8327052074432E-10
(PID.TID 0000.0001) %MON trcstat_ptracer28_mean       =   5.9296782665769E-10
(PID.TID 0000.0001) %MON trcstat_ptracer28_sd         =   1.5037801658120E-11
(PID.TID 0000.0001) %MON trcstat_ptracer28_del2       =   0.0000000000000E+00
(PID.TID 0000.0001) %MON trcstat_ptracer29_max        =   6.0501018562399E-10
(PID.TID 0000.0001) %MON trcstat_ptracer29_min        =   5.6388003807417E-10
(PID.TID 0000.0001) %MON trcstat_ptracer29_mean       =   5.7083031485092E-10
(PID.TID 0000.0001) %MON trcstat_ptracer29_sd         =   1.1092204359714E-11
(PID.TID 0000.0001) %MON trcstat_ptracer29_del2       =   0.0000000000000E+00
(PID.TID 0000.0001) %MON trcstat_ptracer30_max        =   5.7816491595695E-10
(PID.TID 0000.0001) %MON trcstat_ptracer30_min        =   5.4823779610124E-10
(PID.TID 0000.0001) %MON trcstat_ptracer30_mean       =   5.5317207390105E-10
(PID.TID 0000.0001) %MON trcstat_ptracer30_sd         =   8.0897732079400E-12
(PID.TID 0000.0001) %MON trcstat_ptracer30_del2       =   0.0000000000000E+00
(PID.TID 0000.0001) %MON trcstat_ptracer31_max        =   5.5714363800987E-10
(PID.TID 0000.0001) %MON trcstat_ptracer31_min        =   5.3568663313045E-10
(PID.TID 0000.0001) %MON trcstat_ptracer31_mean       =   5.3914900924144E-10
(PID.TID 0000.0001) %MON trcstat_ptracer31_sd         =   5.8191017325697E-12
(PID.TID 0000.0001) %MON trcstat_ptracer31_del2       =   0.0000000000000E+00
(PID.TID 0000.0001) %MON trcstat_ptracer32_max        =   5.4083058109255E-10
(PID.TID 0000.0001) %MON trcstat_ptracer32_min        =   5.2567517436595E-10
(PID.TID 0000.0001) %MON trcstat_ptracer32_mean       =   5.2806702734974E-10
(PID.TID 0000.0001) %MON trcstat_ptracer32_sd         =   4.1093732141598E-12
(PID.TID 0000.0001) %MON trcstat_ptracer32_del2       =   0.0000000000000E+00
(PID.TID 0000.0001) %MON trcstat_ptracer33_max        =   5.2820501597697E-10
(PID.TID 0000.0001) %MON trcstat_ptracer33_min        =   5.1774338633508E-10
(PID.TID 0000.0001) %MON trcstat_ptracer33_mean       =   5.1935946642447E-10
(PID.TID 0000.0001) %MON trcstat_ptracer33_sd         =   2.8274107911311E-12
(PID.TID 0000.0001) %MON trcstat_ptracer33_del2       =   0.0000000000000E+00
(PID.TID 0000.0001) %MON trcstat_ptracer34_max        =   5.1848458644986E-10
(PID.TID 0000.0001) %MON trcstat_ptracer34_min        =   5.1150918462308E-10
(PID.TID 0000.0001) %MON trcstat_ptracer34_mean       =   5.1256540158124E-10
(PID.TID 0000.0001) %MON trcstat_ptracer34_sd         =   1.8710527905781E-12
(PID.TID 0000.0001) %MON trcstat_ptracer34_del2       =   0.0000000000000E+00
(PID.TID 0000.0001) %MON trcstat_ptracer35_max        =   5.1105950493550E-10
(PID.TID 0000.0001) %MON trcstat_ptracer35_min        =   5.0665639959153E-10
(PID.TID 0000.0001) %MON trcstat_ptracer35_mean       =   5.0731091086414E-10
(PID.TID 0000.0001) %MON trcstat_ptracer35_sd         =   1.1649255019585E-12
(PID.TID 0000.0001) %MON trcstat_ptracer35_del2       =   0.0000000000000E+00
(PID.TID 0000.0001) %MON trcstat_ptracer36_max        =   5.0544850766559E-10
(PID.TID 0000.0001) %MON trcstat_ptracer36_min        =   5.0122131533846E-10
(PID.TID 0000.0001) %MON trcstat_ptracer36_mean       =   5.0329304624178E-10
(PID.TID 0000.0001) %MON trcstat_ptracer36_sd         =   6.6242150793151E-13
(PID.TID 0000.0001) %MON trcstat_ptracer36_del2       =   0.0000000000000E+00
(PID.TID 0000.0001) %MON trcstat_ptracer37_max        =   4.9912310547572E-10
(PID.TID 0000.0001) %MON trcstat_ptracer37_min        =   4.9872836632910E-10
(PID.TID 0000.0001) %MON trcstat_ptracer37_mean       =   4.9906839215230E-10
(PID.TID 0000.0001) %MON trcstat_ptracer37_sd         =   1.0790730018690E-13
(PID.TID 0000.0001) %MON trcstat_ptracer37_del2       =   0.0000000000000E+00
(PID.TID 0000.0001) %MON trcstat_ptracer38_max        =   4.6429266520294E-14
(PID.TID 0000.0001) %MON trcstat_ptracer38_min        =   2.9850461889599E-14
(PID.TID 0000.0001) %MON trcstat_ptracer38_mean       =   3.9069931074653E-14
(PID.TID 0000.0001) %MON trcstat_ptracer38_sd         =   5.9592227052730E-15
(PID.TID 0000.0001) %MON trcstat_ptracer38_del2       =   0.0000000000000E+00
(PID.TID 0000.0001) %MON trcstat_ptracer39_max        =   4.3831388263552E-14
(PID.TID 0000.0001) %MON trcstat_ptracer39_min        =   2.9850428689193E-14
(PID.TID 0000.0001) %MON trcstat_ptracer39_mean       =   3.7540044772608E-14
(PID.TID 0000.0001) %MON trcstat_ptracer39_sd         =   4.9806687276739E-15
(PID.TID 0000.0001) %MON trcstat_ptracer39_del2       =   0.0000000000000E+00
(PID.TID 0000.0001) %MON trcstat_ptracer40_max        =   4.1552968774763E-14
(PID.TID 0000.0001) %MON trcstat_ptracer40_min        =   2.9850406201738E-14
(PID.TID 0000.0001) %MON trcstat_ptracer40_mean       =   3.6231227676630E-14
(PID.TID 0000.0001) %MON trcstat_ptracer40_sd         =   4.1404071077889E-15
(PID.TID 0000.0001) %MON trcstat_ptracer40_del2       =   0.0000000000000E+00
(PID.TID 0000.0001) %MON trcstat_ptracer41_max        =   3.9587088726547E-14
(PID.TID 0000.0001) %MON trcstat_ptracer41_min        =   2.9850391261054E-14
(PID.TID 0000.0001) %MON trcstat_ptracer41_mean       =   3.5120287445291E-14
(PID.TID 0000.0001) %MON trcstat_ptracer41_sd         =   3.4250298176333E-15
(PID.TID 0000.0001) %MON trcstat_ptracer41_del2       =   0.0000000000000E+00
(PID.TID 0000.0001) %MON trcstat_ptracer42_max        =   3.7897387793646E-14
(PID.TID 0000.0001) %MON trcstat_ptracer42_min        =   2.9850381566477E-14
(PID.TID 0000.0001) %MON trcstat_ptracer42_mean       =   3.4180798065813E-14
(PID.TID 0000.0001) %MON trcstat_ptracer42_sd         =   2.8184826943774E-15
(PID.TID 0000.0001) %MON trcstat_ptracer42_del2       =   0.0000000000000E+00
(PID.TID 0000.0001) %MON trcstat_ptracer43_max        =   3.6458914313354E-14
(PID.TID 0000.0001) %MON trcstat_ptracer43_min        =   2.9850375497556E-14
(PID.TID 0000.0001) %MON trcstat_ptracer43_mean       =   3.3390133935016E-14
(PID.TID 0000.0001) %MON trcstat_ptracer43_sd         =   2.3069075171217E-15
(PID.TID 0000.0001) %MON trcstat_ptracer43_del2       =   0.0000000000000E+00
(PID.TID 0000.0001) %MON trcstat_ptracer44_max        =   3.5243305665222E-14
(PID.TID 0000.0001) %MON trcstat_ptracer44_min        =   2.9850371900917E-14
(PID.TID 0000.0001) %MON trcstat_ptracer44_mean       =   3.2728317632079E-14
(PID.TID 0000.0001) %MON trcstat_ptracer44_sd         =   1.8779193130731E-15
(PID.TID 0000.0001) %MON trcstat_ptracer44_del2       =   0.0000000000000E+00
(PID.TID 0000.0001) %MON trcstat_ptracer45_max        =   3.4223510387436E-14
(PID.TID 0000.0001) %MON trcstat_ptracer45_min        =   2.9850369943660E-14
(PID.TID 0000.0001) %MON trcstat_ptracer45_mean       =   3.2177141782104E-14
(PID.TID 0000.0001) %MON trcstat_ptracer45_sd         =   1.5200884761993E-15
(PID.TID 0000.0001) %MON trcstat_ptracer45_del2       =   0.0000000000000E+00
(PID.TID 0000.0001) %MON trcstat_ptracer46_max        =   3.3373526984935E-14
(PID.TID 0000.0001) %MON trcstat_ptracer46_min        =   2.9850369021025E-14
(PID.TID 0000.0001) %MON trcstat_ptracer46_mean       =   3.1720361554374E-14
(PID.TID 0000.0001) %MON trcstat_ptracer46_sd         =   1.2231074175468E-15
(PID.TID 0000.0001) %MON trcstat_ptracer46_del2       =   0.0000000000000E+00
(PID.TID 0000.0001) %MON trcstat_ptracer47_max        =   3.2670756180228E-14
(PID.TID 0000.0001) %MON trcstat_ptracer47_min        =   2.9850368691500E-14
(PID.TID 0000.0001) %MON trcstat_ptracer47_mean       =   3.1343719764223E-14
(PID.TID 0000.0001) %MON trcstat_ptracer47_sd         =   9.7786430553516E-16
(PID.TID 0000.0001) %MON trcstat_ptracer47_del2       =   0.0000000000000E+00
(PID.TID 0000.0001) %MON trcstat_ptracer48_max        =   3.2093458606371E-14
(PID.TID 0000.0001) %MON trcstat_ptracer48_min        =   2.9850368632408E-14
(PID.TID 0000.0001) %MON trcstat_ptracer48_mean       =   3.1034826426920E-14
(PID.TID 0000.0001) %MON trcstat_ptracer48_sd         =   7.7639435265325E-16
(PID.TID 0000.0001) %MON trcstat_ptracer48_del2       =   0.0000000000000E+00
(PID.TID 0000.0001) %MON trcstat_ptracer49_max        =   3.1621025146254E-14
(PID.TID 0000.0001) %MON trcstat_ptracer49_min        =   2.9850368610395E-14
(PID.TID 0000.0001) %MON trcstat_ptracer49_mean       =   3.0782994434122E-14
(PID.TID 0000.0001) %MON trcstat_ptracer49_sd         =   6.1180577818134E-16
(PID.TID 0000.0001) %MON trcstat_ptracer49_del2       =   0.0000000000000E+00
(PID.TID 0000.0001) %MON trcstat_ptracer50_max        =   3.1237499005103E-14
(PID.TID 0000.0001) %MON trcstat_ptracer50_min        =   2.9850368462305E-14
(PID.TID 0000.0001) %MON trcstat_ptracer50_mean       =   3.0579031200485E-14
(PID.TID 0000.0001) %MON trcstat_ptracer50_sd         =   4.7815619646394E-16
(PID.TID 0000.0001) %MON trcstat_ptracer50_del2       =   0.0000000000000E+00
(PID.TID 0000.0001) %MON trcstat_ptracer51_max        =   3.0928129789677E-14
(PID.TID 0000.0001) %MON trcstat_ptracer51_min        =   2.9850368082843E-14
(PID.TID 0000.0001) %MON trcstat_ptracer51_mean       =   3.0415043878452E-14
(PID.TID 0000.0001) %MON trcstat_ptracer51_sd         =   3.7034376388791E-16
(PID.TID 0000.0001) %MON trcstat_ptracer51_del2       =   0.0000000000000E+00
(PID.TID 0000.0001) %MON trcstat_ptracer52_max        =   3.0680604926053E-14
(PID.TID 0000.0001) %MON trcstat_ptracer52_min        =   2.9850367416239E-14
(PID.TID 0000.0001) %MON trcstat_ptracer52_mean       =   3.0284259609585E-14
(PID.TID 0000.0001) %MON trcstat_ptracer52_sd         =   2.8401256247790E-16
(PID.TID 0000.0001) %MON trcstat_ptracer52_del2       =   0.0000000000000E+00
(PID.TID 0000.0001) %MON trcstat_ptracer53_max        =   2.9947386649987E-14
(PID.TID 0000.0001) %MON trcstat_ptracer53_min        =   2.9923702300935E-14
(PID.TID 0000.0001) %MON trcstat_ptracer53_mean       =   2.9944103850546E-14
(PID.TID 0000.0001) %MON trcstat_ptracer53_sd         =   6.4744380807243E-18
(PID.TID 0000.0001) %MON trcstat_ptracer53_del2       =   0.0000000000000E+00
(PID.TID 0000.0001) %MON trcstat_ptracer54_max        =   1.8249331083915E-09
(PID.TID 0000.0001) %MON trcstat_ptracer54_min        =   9.9501037695900E-10
(PID.TID 0000.0001) %MON trcstat_ptracer54_mean       =   1.0224174883584E-09
(PID.TID 0000.0001) %MON trcstat_ptracer54_sd         =   1.4548210532655E-10
(PID.TID 0000.0001) %MON trcstat_ptracer54_del2       =   0.0000000000000E+00
(PID.TID 0000.0001) %MON trcstat_ptracer55_max        =   1.8668671680766E-09
(PID.TID 0000.0001) %MON trcstat_ptracer55_min        =   9.9501037695900E-10
(PID.TID 0000.0001) %MON trcstat_ptracer55_mean       =   1.0226594684193E-09
(PID.TID 0000.0001) %MON trcstat_ptracer55_sd         =   1.4707431014899E-10
(PID.TID 0000.0001) %MON trcstat_ptracer55_del2       =   0.0000000000000E+00
(PID.TID 0000.0001) %MON trcstat_ptracer56_max        =   1.6866937522039E-09
(PID.TID 0000.0001) %MON trcstat_ptracer56_min        =   9.9501037695900E-10
(PID.TID 0000.0001) %MON trcstat_ptracer56_mean       =   1.0178135042100E-09
(PID.TID 0000.0001) %MON trcstat_ptracer56_sd         =   1.2103265417288E-10
(PID.TID 0000.0001) %MON trcstat_ptracer56_del2       =   0.0000000000000E+00
(PID.TID 0000.0001) %MON trcstat_ptracer57_max        =   1.6554613223855E-09
(PID.TID 0000.0001) %MON trcstat_ptracer57_min        =   9.9501037695900E-10
(PID.TID 0000.0001) %MON trcstat_ptracer57_mean       =   1.0164969942086E-09
(PID.TID 0000.0001) %MON trcstat_ptracer57_sd         =   1.1410398342943E-10
(PID.TID 0000.0001) %MON trcstat_ptracer57_del2       =   0.0000000000000E+00
(PID.TID 0000.0001) %MON trcstat_ptracer58_max        =   1.5063315225173E-09
(PID.TID 0000.0001) %MON trcstat_ptracer58_min        =   9.9501037695900E-10
(PID.TID 0000.0001) %MON trcstat_ptracer58_mean       =   1.0119204817015E-09
(PID.TID 0000.0001) %MON trcstat_ptracer58_sd         =   8.9731653792996E-11
(PID.TID 0000.0001) %MON trcstat_ptracer58_del2       =   0.0000000000000E+00
(PID.TID 0000.0001) %MON trcstat_ptracer59_max        =   1.3879738012214E-09
(PID.TID 0000.0001) %MON trcstat_ptracer59_min        =   9.9501037695900E-10
(PID.TID 0000.0001) %MON trcstat_ptracer59_mean       =   1.0082315756391E-09
(PID.TID 0000.0001) %MON trcstat_ptracer59_sd         =   7.0109129596806E-11
(PID.TID 0000.0001) %MON trcstat_ptracer59_del2       =   0.0000000000000E+00
(PID.TID 0000.0001) %MON trcstat_ptracer60_max        =   1.2940505170700E-09
(PID.TID 0000.0001) %MON trcstat_ptracer60_min        =   9.9501037695900E-10
(PID.TID 0000.0001) %MON trcstat_ptracer60_mean       =   1.0050958775044E-09
(PID.TID 0000.0001) %MON trcstat_ptracer60_sd         =   5.3467603399550E-11
(PID.TID 0000.0001) %MON trcstat_ptracer60_del2       =   0.0000000000000E+00
(PID.TID 0000.0001) %MON trcstat_ptracer61_max        =   1.2205642610423E-09
(PID.TID 0000.0001) %MON trcstat_ptracer61_min        =   9.9501037695900E-10
(PID.TID 0000.0001) %MON trcstat_ptracer61_mean       =   1.0026302793805E-09
(PID.TID 0000.0001) %MON trcstat_ptracer61_sd         =   4.0381005846550E-11
(PID.TID 0000.0001) %MON trcstat_ptracer61_del2       =   0.0000000000000E+00
(PID.TID 0000.0001) %MON trcstat_ptracer62_max        =   1.1633581144371E-09
(PID.TID 0000.0001) %MON trcstat_ptracer62_min        =   9.9501037695900E-10
(PID.TID 0000.0001) %MON trcstat_ptracer62_mean       =   1.0007048030854E-09
(PID.TID 0000.0001) %MON trcstat_ptracer62_sd         =   3.0158036104813E-11
(PID.TID 0000.0001) %MON trcstat_ptracer62_del2       =   0.0000000000000E+00
(PID.TID 0000.0001) %MON trcstat_ptracer63_max        =   1.1192658680494E-09
(PID.TID 0000.0001) %MON trcstat_ptracer63_min        =   9.9501037695900E-10
(PID.TID 0000.0001) %MON trcstat_ptracer63_mean       =   9.9924272337966E-10
(PID.TID 0000.0001) %MON trcstat_ptracer63_sd         =   2.2387711391774E-11
(PID.TID 0000.0001) %MON trcstat_ptracer63_del2       =   0.0000000000000E+00
(PID.TID 0000.0001) %MON trcstat_ptracer64_max        =   1.0849195847202E-09
(PID.TID 0000.0001) %MON trcstat_ptracer64_min        =   9.9501037695900E-10
(PID.TID 0000.0001) %MON trcstat_ptracer64_mean       =   9.9807391447897E-10
(PID.TID 0000.0001) %MON trcstat_ptracer64_sd         =   1.6172730339014E-11
(PID.TID 0000.0001) %MON trcstat_ptracer64_del2       =   0.0000000000000E+00
(PID.TID 0000.0001) %MON trcstat_ptracer65_max        =   1.0584918979566E-09
(PID.TID 0000.0001) %MON trcstat_ptracer65_min        =   9.9501037695900E-10
(PID.TID 0000.0001) %MON trcstat_ptracer65_mean       =   9.9717408243466E-10
(PID.TID 0000.0001) %MON trcstat_ptracer65_sd         =   1.1379577922618E-11
(PID.TID 0000.0001) %MON trcstat_ptracer65_del2       =   0.0000000000000E+00
(PID.TID 0000.0001) %MON trcstat_ptracer66_max        =   1.0382624480317E-09
(PID.TID 0000.0001) %MON trcstat_ptracer66_min        =   9.9501037695900E-10
(PID.TID 0000.0001) %MON trcstat_ptracer66_mean       =   9.9648503400754E-10
(PID.TID 0000.0001) %MON trcstat_ptracer66_sd         =   7.6989592210981E-12
(PID.TID 0000.0001) %MON trcstat_ptracer66_del2       =   0.0000000000000E+00
(PID.TID 0000.0001) %MON trcstat_ptracer67_max        =   1.0228867456987E-09
(PID.TID 0000.0001) %MON trcstat_ptracer67_min        =   9.9501037695900E-10
(PID.TID 0000.0001) %MON trcstat_ptracer67_mean       =   9.9596119467165E-10
(PID.TID 0000.0001) %MON trcstat_ptracer67_sd         =   4.8900126223784E-12
(PID.TID 0000.0001) %MON trcstat_ptracer67_del2       =   0.0000000000000E+00
(PID.TID 0000.0001) %MON trcstat_ptracer68_max        =   1.0113150496787E-09
(PID.TID 0000.0001) %MON trcstat_ptracer68_min        =   9.9501037695900E-10
(PID.TID 0000.0001) %MON trcstat_ptracer68_mean       =   9.9556692574443E-10
(PID.TID 0000.0001) %MON trcstat_ptracer68_sd         =   2.7720575889271E-12
(PID.TID 0000.0001) %MON trcstat_ptracer68_del2       =   0.0000000000000E+00
(PID.TID 0000.0001) %MON trcstat_ptracer69_max        =   2.9744170513195E-10
(PID.TID 0000.0001) %MON trcstat_ptracer69_min        =   2.9528113846395E-10
(PID.TID 0000.0001) %MON trcstat_ptracer69_mean       =   2.9693002407608E-10
(PID.TID 0000.0001) %MON trcstat_ptracer69_sd         =   5.8514335642579E-13
(PID.TID 0000.0001) %MON trcstat_ptracer69_del2       =   0.0000000000000E+00
(PID.TID 0000.0001) %MON trcstat_ptracer70_max        =   2.0246131861886E-10
(PID.TID 0000.0001) %MON trcstat_ptracer70_min        =   1.8532904769183E-10
(PID.TID 0000.0001) %MON trcstat_ptracer70_mean       =   2.0168444434491E-10
(PID.TID 0000.0001) %MON trcstat_ptracer70_sd         =   9.1335391806473E-13
(PID.TID 0000.0001) %MON trcstat_ptracer70_del2       =   0.0000000000000E+00
(PID.TID 0000.0001) %MON trcstat_ptracer71_max        =   2.7198143256930E-01
(PID.TID 0000.0001) %MON trcstat_ptracer71_min        =   2.5303270695716E-11
(PID.TID 0000.0001) %MON trcstat_ptracer71_mean       =   3.2988281461359E-02
(PID.TID 0000.0001) %MON trcstat_ptracer71_sd         =   8.3476579508374E-02
(PID.TID 0000.0001) %MON trcstat_ptracer71_del2       =   0.0000000000000E+00
(PID.TID 0000.0001) %MON trcstat_ptracer72_max        =   3.0233251652594E-02
(PID.TID 0000.0001) %MON trcstat_ptracer72_min        =   1.5994361490924E-07
(PID.TID 0000.0001) %MON trcstat_ptracer72_mean       =   1.4883961604826E-02
(PID.TID 0000.0001) %MON trcstat_ptracer72_sd         =   1.1063375217450E-02
(PID.TID 0000.0001) %MON trcstat_ptracer72_del2       =   0.0000000000000E+00
(PID.TID 0000.0001) %MON trcstat_ptracer73_max        =   1.6998839357346E-05
(PID.TID 0000.0001) %MON trcstat_ptracer73_min        =   1.3724930275840E-15
(PID.TID 0000.0001) %MON trcstat_ptracer73_mean       =   2.0617675899624E-06
(PID.TID 0000.0001) %MON trcstat_ptracer73_sd         =   5.2172862148477E-06
(PID.TID 0000.0001) %MON trcstat_ptracer73_del2       =   0.0000000000000E+00
(PID.TID 0000.0001) %MON trcstat_ptracer74_max        =   1.8895783017658E-06
(PID.TID 0000.0001) %MON trcstat_ptracer74_min        =   9.9963768163962E-12
(PID.TID 0000.0001) %MON trcstat_ptracer74_mean       =   9.3024760816896E-07
(PID.TID 0000.0001) %MON trcstat_ptracer74_sd         =   6.9146097632103E-07
(PID.TID 0000.0001) %MON trcstat_ptracer74_del2       =   0.0000000000000E+00
(PID.TID 0000.0001) // =======================================================
(PID.TID 0000.0001) // End MONITOR ptracers field statistics
(PID.TID 0000.0001) // =======================================================
(PID.TID 0000.0001) // =======================================================
(PID.TID 0000.0001) // Begin MONITOR dynamic field statistics
(PID.TID 0000.0001) // =======================================================
(PID.TID 0000.0001) %MON time_tsnumber                =                     3
(PID.TID 0000.0001) %MON time_secondsf                =   3.2400000000000E+04
(PID.TID 0000.0001) %MON dynstat_eta_max              =   0.0000000000000E+00
(PID.TID 0000.0001) %MON dynstat_eta_min              =   0.0000000000000E+00
(PID.TID 0000.0001) %MON dynstat_eta_mean             =   0.0000000000000E+00
(PID.TID 0000.0001) %MON dynstat_eta_sd               =   0.0000000000000E+00
(PID.TID 0000.0001) %MON dynstat_eta_del2             =   0.0000000000000E+00
(PID.TID 0000.0001) %MON dynstat_uvel_max             =   0.0000000000000E+00
(PID.TID 0000.0001) %MON dynstat_uvel_min             =   0.0000000000000E+00
(PID.TID 0000.0001) %MON dynstat_uvel_mean            =   0.0000000000000E+00
(PID.TID 0000.0001) %MON dynstat_uvel_sd              =   0.0000000000000E+00
(PID.TID 0000.0001) %MON dynstat_uvel_del2            =   0.0000000000000E+00
(PID.TID 0000.0001) %MON dynstat_vvel_max             =   0.0000000000000E+00
(PID.TID 0000.0001) %MON dynstat_vvel_min             =   0.0000000000000E+00
(PID.TID 0000.0001) %MON dynstat_vvel_mean            =   0.0000000000000E+00
(PID.TID 0000.0001) %MON dynstat_vvel_sd              =   0.0000000000000E+00
(PID.TID 0000.0001) %MON dynstat_vvel_del2            =   0.0000000000000E+00
(PID.TID 0000.0001) %MON dynstat_wvel_max             =   0.0000000000000E+00
(PID.TID 0000.0001) %MON dynstat_wvel_min             =   0.0000000000000E+00
(PID.TID 0000.0001) %MON dynstat_wvel_mean            =   0.0000000000000E+00
(PID.TID 0000.0001) %MON dynstat_wvel_sd              =   0.0000000000000E+00
(PID.TID 0000.0001) %MON dynstat_wvel_del2            =   0.0000000000000E+00
(PID.TID 0000.0001) %MON dynstat_theta_max            =   6.4982507919171E+00
(PID.TID 0000.0001) %MON dynstat_theta_min            =  -9.3887414449177E-01
(PID.TID 0000.0001) %MON dynstat_theta_mean           =   1.5610609119765E-01
(PID.TID 0000.0001) %MON dynstat_theta_sd             =   2.0855626582259E+00
(PID.TID 0000.0001) %MON dynstat_theta_del2           =   0.0000000000000E+00
(PID.TID 0000.0001) %MON dynstat_salt_max             =   3.5000000000000E+01
(PID.TID 0000.0001) %MON dynstat_salt_min             =   3.5000000000000E+01
(PID.TID 0000.0001) %MON dynstat_salt_mean            =   3.5000000000000E+01
(PID.TID 0000.0001) %MON dynstat_salt_sd              =   7.1054273576010E-15
(PID.TID 0000.0001) %MON dynstat_salt_del2            =   0.0000000000000E+00
(PID.TID 0000.0001) %MON dynstat_sst_max              =   6.4982507919171E+00
(PID.TID 0000.0001) %MON dynstat_sst_min              =   6.4982507919171E+00
(PID.TID 0000.0001) %MON dynstat_sst_mean             =   6.4982507919171E+00
(PID.TID 0000.0001) %MON dynstat_sst_sd               =   0.0000000000000E+00
(PID.TID 0000.0001) %MON dynstat_sst_del2             =   0.0000000000000E+00
(PID.TID 0000.0001) %MON dynstat_sss_max              =   3.5000000000000E+01
(PID.TID 0000.0001) %MON dynstat_sss_min              =   3.5000000000000E+01
(PID.TID 0000.0001) %MON dynstat_sss_mean             =   3.5000000000000E+01
(PID.TID 0000.0001) %MON dynstat_sss_sd               =   0.0000000000000E+00
(PID.TID 0000.0001) %MON dynstat_sss_del2             =   0.0000000000000E+00
(PID.TID 0000.0001) %MON forcing_qnet_max             =   0.0000000000000E+00
(PID.TID 0000.0001) %MON forcing_qnet_min             =   0.0000000000000E+00
(PID.TID 0000.0001) %MON forcing_qnet_mean            =   0.0000000000000E+00
(PID.TID 0000.0001) %MON forcing_qnet_sd              =   0.0000000000000E+00
(PID.TID 0000.0001) %MON forcing_qnet_del2            =   0.0000000000000E+00
(PID.TID 0000.0001) %MON forcing_qsw_max              =   0.0000000000000E+00
(PID.TID 0000.0001) %MON forcing_qsw_min              =   0.0000000000000E+00
(PID.TID 0000.0001) %MON forcing_qsw_mean             =   0.0000000000000E+00
(PID.TID 0000.0001) %MON forcing_qsw_sd               =   0.0000000000000E+00
(PID.TID 0000.0001) %MON forcing_qsw_del2             =   0.0000000000000E+00
(PID.TID 0000.0001) %MON forcing_empmr_max            =   0.0000000000000E+00
(PID.TID 0000.0001) %MON forcing_empmr_min            =   0.0000000000000E+00
(PID.TID 0000.0001) %MON forcing_empmr_mean           =   0.0000000000000E+00
(PID.TID 0000.0001) %MON forcing_empmr_sd             =   0.0000000000000E+00
(PID.TID 0000.0001) %MON forcing_empmr_del2           =   0.0000000000000E+00
(PID.TID 0000.0001) %MON forcing_fu_max               =   2.2715694695711E+00
(PID.TID 0000.0001) %MON forcing_fu_min               =   2.2715694695711E+00
(PID.TID 0000.0001) %MON forcing_fu_mean              =   2.2715694695711E+00
(PID.TID 0000.0001) %MON forcing_fu_sd                =   0.0000000000000E+00
(PID.TID 0000.0001) %MON forcing_fu_del2              =   0.0000000000000E+00
(PID.TID 0000.0001) %MON forcing_fv_max               =   1.1480025862654E+00
(PID.TID 0000.0001) %MON forcing_fv_min               =   1.1480025862654E+00
(PID.TID 0000.0001) %MON forcing_fv_mean              =   1.1480025862654E+00
(PID.TID 0000.0001) %MON forcing_fv_sd                =   0.0000000000000E+00
(PID.TID 0000.0001) %MON forcing_fv_del2              =   0.0000000000000E+00
(PID.TID 0000.0001) %MON advcfl_uvel_max              =   0.0000000000000E+00
(PID.TID 0000.0001) %MON advcfl_vvel_max              =   0.0000000000000E+00
(PID.TID 0000.0001) %MON advcfl_wvel_max              =   0.0000000000000E+00
(PID.TID 0000.0001) %MON advcfl_W_hf_max              =   0.0000000000000E+00
(PID.TID 0000.0001) %MON pe_b_mean                    =   0.0000000000000E+00
(PID.TID 0000.0001) %MON ke_max                       =   0.0000000000000E+00
(PID.TID 0000.0001) %MON ke_mean                      =   0.0000000000000E+00
(PID.TID 0000.0001) %MON ke_vol                       =   4.1199767883485E+13
(PID.TID 0000.0001) %MON vort_r_min                   =   0.0000000000000E+00
(PID.TID 0000.0001) %MON vort_r_max                   =   0.0000000000000E+00
(PID.TID 0000.0001) %MON vort_a_mean                  =  -4.5067801836625E-05
(PID.TID 0000.0001) %MON vort_a_sd                    =  -4.1359030627651E-25
(PID.TID 0000.0001) %MON vort_p_mean                  =  -4.5067801836625E-05
(PID.TID 0000.0001) %MON vort_p_sd                    =   0.0000000000000E+00
(PID.TID 0000.0001) %MON surfExpan_theta_mean         =   0.0000000000000E+00
(PID.TID 0000.0001) %MON surfExpan_salt_mean          =   0.0000000000000E+00
(PID.TID 0000.0001) // =======================================================
(PID.TID 0000.0001) // End MONITOR dynamic field statistics
(PID.TID 0000.0001) // =======================================================
(PID.TID 0000.0001) // =======================================================
(PID.TID 0000.0001) // Begin MONITOR ptracer field statistics
(PID.TID 0000.0001) // =======================================================
(PID.TID 0000.0001) %MON trcstat_ptracer01_max        =   2.1623998930013E+03
(PID.TID 0000.0001) %MON trcstat_ptracer01_min        =   2.0947204476820E+03
(PID.TID 0000.0001) %MON trcstat_ptracer01_mean       =   2.1557233177756E+03
(PID.TID 0000.0001) %MON trcstat_ptracer01_sd         =   1.1485329988764E+01
(PID.TID 0000.0001) %MON trcstat_ptracer01_del2       =   0.0000000000000E+00
(PID.TID 0000.0001) %MON trcstat_ptracer02_max        =   1.5341521852117E+01
(PID.TID 0000.0001) %MON trcstat_ptracer02_min        =   1.1894623491875E+01
(PID.TID 0000.0001) %MON trcstat_ptracer02_mean       =   1.4471853784917E+01
(PID.TID 0000.0001) %MON trcstat_ptracer02_sd         =   9.1945472006766E-01
(PID.TID 0000.0001) %MON trcstat_ptracer02_del2       =   0.0000000000000E+00
(PID.TID 0000.0001) %MON trcstat_ptracer03_max        =   3.7852965111202E-02
(PID.TID 0000.0001) %MON trcstat_ptracer03_min        =   7.5478161853639E-11
(PID.TID 0000.0001) %MON trcstat_ptracer03_mean       =   7.7605044506591E-03
(PID.TID 0000.0001) %MON trcstat_ptracer03_sd         =   1.0744166588037E-02
(PID.TID 0000.0001) %MON trcstat_ptracer03_del2       =   0.0000000000000E+00
(PID.TID 0000.0001) %MON trcstat_ptracer04_max        =   1.7098189083329E-03
(PID.TID 0000.0001) %MON trcstat_ptracer04_min        =   5.0808046045656E-10
(PID.TID 0000.0001) %MON trcstat_ptracer04_mean       =   2.9940170185860E-04
(PID.TID 0000.0001) %MON trcstat_ptracer04_sd         =   4.4109815042749E-04
(PID.TID 0000.0001) %MON trcstat_ptracer04_del2       =   0.0000000000000E+00
(PID.TID 0000.0001) %MON trcstat_ptracer05_max        =   9.1624247141981E-04
(PID.TID 0000.0001) %MON trcstat_ptracer05_min        =   3.9221351629147E-13
(PID.TID 0000.0001) %MON trcstat_ptracer05_mean       =   5.7979749769985E-04
(PID.TID 0000.0001) %MON trcstat_ptracer05_sd         =   3.7870557034174E-04
(PID.TID 0000.0001) %MON trcstat_ptracer05_del2       =   0.0000000000000E+00
(PID.TID 0000.0001) %MON trcstat_ptracer06_max        =   5.5254128768165E-09
(PID.TID 0000.0001) %MON trcstat_ptracer06_min        =   4.8614378424325E-09
(PID.TID 0000.0001) %MON trcstat_ptracer06_mean       =   5.3619499540090E-09
(PID.TID 0000.0001) %MON trcstat_ptracer06_sd         =   1.8227948885446E-10
(PID.TID 0000.0001) %MON trcstat_ptracer06_del2       =   0.0000000000000E+00
(PID.TID 0000.0001) %MON trcstat_ptracer07_max        =   5.7074279825861E-09
(PID.TID 0000.0001) %MON trcstat_ptracer07_min        =   5.1419140894323E-09
(PID.TID 0000.0001) %MON trcstat_ptracer07_mean       =   5.5762511936592E-09
(PID.TID 0000.0001) %MON trcstat_ptracer07_sd         =   1.5417635313682E-10
(PID.TID 0000.0001) %MON trcstat_ptracer07_del2       =   0.0000000000000E+00
(PID.TID 0000.0001) %MON trcstat_ptracer08_max        =   5.8648584571541E-09
(PID.TID 0000.0001) %MON trcstat_ptracer08_min        =   5.3975756719390E-09
(PID.TID 0000.0001) %MON trcstat_ptracer08_mean       =   5.7620590906884E-09
(PID.TID 0000.0001) %MON trcstat_ptracer08_sd         =   1.2653783965882E-10
(PID.TID 0000.0001) %MON trcstat_ptracer08_del2       =   0.0000000000000E+00
(PID.TID 0000.0001) %MON trcstat_ptracer09_max        =   6.0007071828932E-09
(PID.TID 0000.0001) %MON trcstat_ptracer09_min        =   5.6248018324114E-09
(PID.TID 0000.0001) %MON trcstat_ptracer09_mean       =   5.9217857651035E-09
(PID.TID 0000.0001) %MON trcstat_ptracer09_sd         =   1.0121037774108E-10
(PID.TID 0000.0001) %MON trcstat_ptracer09_del2       =   0.0000000000000E+00
(PID.TID 0000.0001) %MON trcstat_ptracer10_max        =   6.1151192920106E-09
(PID.TID 0000.0001) %MON trcstat_ptracer10_min        =   5.8195829403578E-09
(PID.TID 0000.0001) %MON trcstat_ptracer10_mean       =   6.0556799723878E-09
(PID.TID 0000.0001) %MON trcstat_ptracer10_sd         =   7.9200878275559E-11
(PID.TID 0000.0001) %MON trcstat_ptracer10_del2       =   0.0000000000000E+00
(PID.TID 0000.0001) %MON trcstat_ptracer11_max        =   6.2099876241361E-09
(PID.TID 0000.0001) %MON trcstat_ptracer11_min        =   5.9821706046486E-09
(PID.TID 0000.0001) %MON trcstat_ptracer11_mean       =   6.1660006774740E-09
(PID.TID 0000.0001) %MON trcstat_ptracer11_sd         =   6.0729693489816E-11
(PID.TID 0000.0001) %MON trcstat_ptracer11_del2       =   0.0000000000000E+00
(PID.TID 0000.0001) %MON trcstat_ptracer12_max        =   6.2881047212433E-09
(PID.TID 0000.0001) %MON trcstat_ptracer12_min        =   6.1152941618408E-09
(PID.TID 0000.0001) %MON trcstat_ptracer12_mean       =   6.2560395280079E-09
(PID.TID 0000.0001) %MON trcstat_ptracer12_sd         =   4.5810904883187E-11
(PID.TID 0000.0001) %MON trcstat_ptracer12_del2       =   0.0000000000000E+00
(PID.TID 0000.0001) %MON trcstat_ptracer13_max        =   6.3520114667862E-09
(PID.TID 0000.0001) %MON trcstat_ptracer13_min        =   6.2227316025121E-09
(PID.TID 0000.0001) %MON trcstat_ptracer13_mean       =   6.3289918519979E-09
(PID.TID 0000.0001) %MON trcstat_ptracer13_sd         =   3.3996623945905E-11
(PID.TID 0000.0001) %MON trcstat_ptracer13_del2       =   0.0000000000000E+00
(PID.TID 0000.0001) %MON trcstat_ptracer14_max        =   6.4041433767823E-09
(PID.TID 0000.0001) %MON trcstat_ptracer14_min        =   6.3086656896860E-09
(PID.TID 0000.0001) %MON trcstat_ptracer14_mean       =   6.3877089020627E-09
(PID.TID 0000.0001) %MON trcstat_ptracer14_sd         =   2.4815677223732E-11
(PID.TID 0000.0001) %MON trcstat_ptracer14_del2       =   0.0000000000000E+00
(PID.TID 0000.0001) %MON trcstat_ptracer15_max        =   6.4463471348040E-09
(PID.TID 0000.0001) %MON trcstat_ptracer15_min        =   6.3768028428504E-09
(PID.TID 0000.0001) %MON trcstat_ptracer15_mean       =   6.4346906094131E-09
(PID.TID 0000.0001) %MON trcstat_ptracer15_sd         =   1.7771442611099E-11
(PID.TID 0000.0001) %MON trcstat_ptracer15_del2       =   0.0000000000000E+00
(PID.TID 0000.0001) %MON trcstat_ptracer16_max        =   6.4802914545778E-09
(PID.TID 0000.0001) %MON trcstat_ptracer16_min        =   6.4304179791714E-09
(PID.TID 0000.0001) %MON trcstat_ptracer16_mean       =   6.4720233996991E-09
(PID.TID 0000.0001) %MON trcstat_ptracer16_sd         =   1.2494509432155E-11
(PID.TID 0000.0001) %MON trcstat_ptracer16_del2       =   0.0000000000000E+00
(PID.TID 0000.0001) %MON trcstat_ptracer17_max        =   6.5074335802011E-09
(PID.TID 0000.0001) %MON trcstat_ptracer17_min        =   6.4722969877526E-09
(PID.TID 0000.0001) %MON trcstat_ptracer17_mean       =   6.5014993304525E-09
(PID.TID 0000.0001) %MON trcstat_ptracer17_sd         =   8.5992434571228E-12
(PID.TID 0000.0001) %MON trcstat_ptracer17_del2       =   0.0000000000000E+00
(PID.TID 0000.0001) %MON trcstat_ptracer18_max        =   6.5369446964889E-09
(PID.TID 0000.0001) %MON trcstat_ptracer18_min        =   6.5047521657358E-09
(PID.TID 0000.0001) %MON trcstat_ptracer18_mean       =   6.5245917128959E-09
(PID.TID 0000.0001) %MON trcstat_ptracer18_sd         =   5.8071312736732E-12
(PID.TID 0000.0001) %MON trcstat_ptracer18_del2       =   0.0000000000000E+00
(PID.TID 0000.0001) %MON trcstat_ptracer19_max        =   6.5589133271503E-09
(PID.TID 0000.0001) %MON trcstat_ptracer19_min        =   6.5296725703029E-09
(PID.TID 0000.0001) %MON trcstat_ptracer19_mean       =   6.5425140502654E-09
(PID.TID 0000.0001) %MON trcstat_ptracer19_sd         =   3.9293239808620E-12
(PID.TID 0000.0001) %MON trcstat_ptracer19_del2       =   0.0000000000000E+00
(PID.TID 0000.0001) %MON trcstat_ptracer20_max        =   6.5741122412327E-09
(PID.TID 0000.0001) %MON trcstat_ptracer20_min        =   6.5363565151082E-09
(PID.TID 0000.0001) %MON trcstat_ptracer20_mean       =   6.5562610561018E-09
(PID.TID 0000.0001) %MON trcstat_ptracer20_sd         =   2.9141118969317E-12
(PID.TID 0000.0001) %MON trcstat_ptracer20_del2       =   0.0000000000000E+00
(PID.TID 0000.0001) %MON trcstat_ptracer21_max        =   6.6075797416321E-09
(PID.TID 0000.0001) %MON trcstat_ptracer21_min        =   6.5997483914799E-09
(PID.TID 0000.0001) %MON trcstat_ptracer21_mean       =   6.6064934078277E-09
(PID.TID 0000.0001) %MON trcstat_ptracer21_sd         =   2.1424471738050E-12
(PID.TID 0000.0001) %MON trcstat_ptracer21_del2       =   0.0000000000000E+00
(PID.TID 0000.0001) %MON trcstat_ptracer22_max        =   1.2386730668720E-09
(PID.TID 0000.0001) %MON trcstat_ptracer22_min        =   9.4693415501435E-10
(PID.TID 0000.0001) %MON trcstat_ptracer22_mean       =   1.0174913342620E-09
(PID.TID 0000.0001) %MON trcstat_ptracer22_sd         =   7.9286766471983E-11
(PID.TID 0000.0001) %MON trcstat_ptracer22_del2       =   0.0000000000000E+00
(PID.TID 0000.0001) %MON trcstat_ptracer23_max        =   1.1176567150698E-09
(PID.TID 0000.0001) %MON trcstat_ptracer23_min        =   8.6881608594965E-10
(PID.TID 0000.0001) %MON trcstat_ptracer23_mean       =   9.2552698348722E-10
(PID.TID 0000.0001) %MON trcstat_ptracer23_sd         =   6.7269422867521E-11
(PID.TID 0000.0001) %MON trcstat_ptracer23_del2       =   0.0000000000000E+00
(PID.TID 0000.0001) %MON trcstat_ptracer24_max        =   1.0069380703987E-09
(PID.TID 0000.0001) %MON trcstat_ptracer24_min        =   8.0124936139429E-10
(PID.TID 0000.0001) %MON trcstat_ptracer24_mean       =   8.4577000410396E-10
(PID.TID 0000.0001) %MON trcstat_ptracer24_sd         =   5.5384815713138E-11
(PID.TID 0000.0001) %MON trcstat_ptracer24_del2       =   0.0000000000000E+00
(PID.TID 0000.0001) %MON trcstat_ptracer25_max        =   9.0890425030711E-10
(PID.TID 0000.0001) %MON trcstat_ptracer25_min        =   7.4294519083077E-10
(PID.TID 0000.0001) %MON trcstat_ptracer25_mean       =   7.7723047334659E-10
(PID.TID 0000.0001) %MON trcstat_ptracer25_sd         =   4.4546608958970E-11
(PID.TID 0000.0001) %MON trcstat_ptracer25_del2       =   0.0000000000000E+00
(PID.TID 0000.0001) %MON trcstat_ptracer26_max        =   8.2449498445909E-10
(PID.TID 0000.0001) %MON trcstat_ptracer26_min        =   6.9384128602089E-10
(PID.TID 0000.0001) %MON trcstat_ptracer26_mean       =   7.1974111447762E-10
(PID.TID 0000.0001) %MON trcstat_ptracer26_sd         =   3.5025002134267E-11
(PID.TID 0000.0001) %MON trcstat_ptracer26_del2       =   0.0000000000000E+00
(PID.TID 0000.0001) %MON trcstat_ptracer27_max        =   7.5405333623923E-10
(PID.TID 0000.0001) %MON trcstat_ptracer27_min        =   6.5312526978547E-10
(PID.TID 0000.0001) %MON trcstat_ptracer27_mean       =   6.7238104684263E-10
(PID.TID 0000.0001) %MON trcstat_ptracer27_sd         =   2.7042421477946E-11
(PID.TID 0000.0001) %MON trcstat_ptracer27_del2       =   0.0000000000000E+00
(PID.TID 0000.0001) %MON trcstat_ptracer28_max        =   6.9624941253239E-10
(PID.TID 0000.0001) %MON trcstat_ptracer28_min        =   6.1959862670697E-10
(PID.TID 0000.0001) %MON trcstat_ptracer28_mean       =   6.3371623247135E-10
(PID.TID 0000.0001) %MON trcstat_ptracer28_sd         =   2.0551705768037E-11
(PID.TID 0000.0001) %MON trcstat_ptracer28_del2       =   0.0000000000000E+00
(PID.TID 0000.0001) %MON trcstat_ptracer29_max        =   6.4950076440357E-10
(PID.TID 0000.0001) %MON trcstat_ptracer29_min        =   5.9217084945642E-10
(PID.TID 0000.0001) %MON trcstat_ptracer29_mean       =   6.0238915809025E-10
(PID.TID 0000.0001) %MON trcstat_ptracer29_sd         =   1.5394275031448E-11
(PID.TID 0000.0001) %MON trcstat_ptracer29_del2       =   0.0000000000000E+00
(PID.TID 0000.0001) %MON trcstat_ptracer30_max        =   6.1209011340229E-10
(PID.TID 0000.0001) %MON trcstat_ptracer30_min        =   5.6987402684936E-10
(PID.TID 0000.0001) %MON trcstat_ptracer30_mean       =   5.7717530273088E-10
(PID.TID 0000.0001) %MON trcstat_ptracer30_sd         =   1.1363530622700E-11
(PID.TID 0000.0001) %MON trcstat_ptracer30_del2       =   0.0000000000000E+00
(PID.TID 0000.0001) %MON trcstat_ptracer31_max        =   5.8241192601489E-10
(PID.TID 0000.0001) %MON trcstat_ptracer31_min        =   5.5186437948051E-10
(PID.TID 0000.0001) %MON trcstat_ptracer31_mean       =   5.5700751023785E-10
(PID.TID 0000.0001) %MON trcstat_ptracer31_sd         =   8.2519714529256E-12
(PID.TID 0000.0001) %MON trcstat_ptracer31_del2       =   0.0000000000000E+00
(PID.TID 0000.0001) %MON trcstat_ptracer32_max        =   5.5907790054716E-10
(PID.TID 0000.0001) %MON trcstat_ptracer32_min        =   5.3741619521648E-10
(PID.TID 0000.0001) %MON trcstat_ptracer32_mean       =   5.4097611560124E-10
(PID.TID 0000.0001) %MON trcstat_ptracer32_sd         =   5.8710877850225E-12
(PID.TID 0000.0001) %MON trcstat_ptracer32_del2       =   0.0000000000000E+00
(PID.TID 0000.0001) %MON trcstat_ptracer33_max        =   5.4090225532132E-10
(PID.TID 0000.0001) %MON trcstat_ptracer33_min        =   5.2591175484762E-10
(PID.TID 0000.0001) %MON trcstat_ptracer33_mean       =   5.2831870108892E-10
(PID.TID 0000.0001) %MON trcstat_ptracer33_sd         =   4.0631169375472E-12
(PID.TID 0000.0001) %MON trcstat_ptracer33_del2       =   0.0000000000000E+00
(PID.TID 0000.0001) %MON trcstat_ptracer34_max        =   5.2686154992421E-10
(PID.TID 0000.0001) %MON trcstat_ptracer34_min        =   5.1682953084275E-10
(PID.TID 0000.0001) %MON trcstat_ptracer34_mean       =   5.1840252281284E-10
(PID.TID 0000.0001) %MON trcstat_ptracer34_sd         =   2.6998019992236E-12
(PID.TID 0000.0001) %MON trcstat_ptracer34_del2       =   0.0000000000000E+00
(PID.TID 0000.0001) %MON trcstat_ptracer35_max        =   5.1607627856240E-10
(PID.TID 0000.0001) %MON trcstat_ptracer35_min        =   5.0973205460795E-10
(PID.TID 0000.0001) %MON trcstat_ptracer35_mean       =   5.1070643249745E-10
(PID.TID 0000.0001) %MON trcstat_ptracer35_sd         =   1.6816178760158E-12
(PID.TID 0000.0001) %MON trcstat_ptracer35_del2       =   0.0000000000000E+00
(PID.TID 0000.0001) %MON trcstat_ptracer36_max        =   5.0788970975130E-10
(PID.TID 0000.0001) %MON trcstat_ptracer36_min        =   5.0332238826961E-10
(PID.TID 0000.0001) %MON trcstat_ptracer36_mean       =   5.0480325214404E-10
(PID.TID 0000.0001) %MON trcstat_ptracer36_sd         =   9.4043565504720E-13
(PID.TID 0000.0001) %MON trcstat_ptracer36_del2       =   0.0000000000000E+00
(PID.TID 0000.0001) %MON trcstat_ptracer37_max        =   4.9868524158228E-10
(PID.TID 0000.0001) %MON trcstat_ptracer37_min        =   4.9809419631379E-10
(PID.TID 0000.0001) %MON trcstat_ptracer37_mean       =   4.9860325412895E-10
(PID.TID 0000.0001) %MON trcstat_ptracer37_sd         =   1.6169411920852E-13
(PID.TID 0000.0001) %MON trcstat_ptracer37_del2       =   0.0000000000000E+00
(PID.TID 0000.0001) %MON trcstat_ptracer38_max        =   5.3102213121298E-14
(PID.TID 0000.0001) %MON trcstat_ptracer38_min        =   2.9776026211817E-14
(PID.TID 0000.0001) %MON trcstat_ptracer38_mean       =   4.2946801915124E-14
(PID.TID 0000.0001) %MON trcstat_ptracer38_sd         =   8.4894835990402E-15
(PID.TID 0000.0001) %MON trcstat_ptracer38_del2       =   0.0000000000000E+00
(PID.TID 0000.0001) %MON trcstat_ptracer39_max        =   4.9672682136893E-14
(PID.TID 0000.0001) %MON trcstat_ptracer39_min        =   2.9775990996874E-14
(PID.TID 0000.0001) %MON trcstat_ptracer39_mean       =   4.0860107238023E-14
(PID.TID 0000.0001) %MON trcstat_ptracer39_sd         =   7.1616956136932E-15
(PID.TID 0000.0001) %MON trcstat_ptracer39_del2       =   0.0000000000000E+00
(PID.TID 0000.0001) %MON trcstat_ptracer40_max        =   4.6595636345217E-14
(PID.TID 0000.0001) %MON trcstat_ptracer40_min        =   2.9775949130103E-14
(PID.TID 0000.0001) %MON trcstat_ptracer40_mean       =   3.9042368953445E-14
(PID.TID 0000.0001) %MON trcstat_ptracer40_sd         =   6.0003216697843E-15
(PID.TID 0000.0001) %MON trcstat_ptracer40_del2       =   0.0000000000000E+00
(PID.TID 0000.0001) %MON trcstat_ptracer41_max        =   4.3886242908893E-14
(PID.TID 0000.0001) %MON trcstat_ptracer41_min        =   2.9775921428422E-14
(PID.TID 0000.0001) %MON trcstat_ptracer41_mean       =   3.7476109425782E-14
(PID.TID 0000.0001) %MON trcstat_ptracer41_sd         =   4.9959801356612E-15
(PID.TID 0000.0001) %MON trcstat_ptracer41_del2       =   0.0000000000000E+00
(PID.TID 0000.0001) %MON trcstat_ptracer42_max        =   4.1516762388686E-14
(PID.TID 0000.0001) %MON trcstat_ptracer42_min        =   2.9775903682242E-14
(PID.TID 0000.0001) %MON trcstat_ptracer42_mean       =   3.6135031982159E-14
(PID.TID 0000.0001) %MON trcstat_ptracer42_sd         =   4.1331999658934E-15
(PID.TID 0000.0001) %MON trcstat_ptracer42_del2       =   0.0000000000000E+00
(PID.TID 0000.0001) %MON trcstat_ptracer43_max        =   3.9471484478498E-14
(PID.TID 0000.0001) %MON trcstat_ptracer43_min        =   2.9775892869660E-14
(PID.TID 0000.0001) %MON trcstat_ptracer43_mean       =   3.4995001965237E-14
(PID.TID 0000.0001) %MON trcstat_ptracer43_sd         =   3.3976890647244E-15
(PID.TID 0000.0001) %MON trcstat_ptracer43_del2       =   0.0000000000000E+00
(PID.TID 0000.0001) %MON trcstat_ptracer44_max        =   3.7723031659344E-14
(PID.TID 0000.0001) %MON trcstat_ptracer44_min        =   2.9775886800684E-14
(PID.TID 0000.0001) %MON trcstat_ptracer44_mean       =   3.4033011622113E-14
(PID.TID 0000.0001) %MON trcstat_ptracer44_sd         =   2.7755406637416E-15
(PID.TID 0000.0001) %MON trcstat_ptracer44_del2       =   0.0000000000000E+00
(PID.TID 0000.0001) %MON trcstat_ptracer45_max        =   3.6242805890821E-14
(PID.TID 0000.0001) %MON trcstat_ptracer45_min        =   2.9775883864184E-14
(PID.TID 0000.0001) %MON trcstat_ptracer45_mean       =   3.3226664938208E-14
(PID.TID 0000.0001) %MON trcstat_ptracer45_sd         =   2.2529723861130E-15
(PID.TID 0000.0001) %MON trcstat_ptracer45_del2       =   0.0000000000000E+00
(PID.TID 0000.0001) %MON trcstat_ptracer46_max        =   3.4999611705558E-14
(PID.TID 0000.0001) %MON trcstat_ptracer46_min        =   2.9775882869838E-14
(PID.TID 0000.0001) %MON trcstat_ptracer46_mean       =   3.2554984037617E-14
(PID.TID 0000.0001) %MON trcstat_ptracer46_sd         =   1.8168604177403E-15
(PID.TID 0000.0001) %MON trcstat_ptracer46_del2       =   0.0000000000000E+00
(PID.TID 0000.0001) %MON trcstat_ptracer47_max        =   3.3965131594971E-14
(PID.TID 0000.0001) %MON trcstat_ptracer47_min        =   2.9775882934698E-14
(PID.TID 0000.0001) %MON trcstat_ptracer47_mean       =   3.1998895753866E-14
(PID.TID 0000.0001) %MON trcstat_ptracer47_sd         =   1.4551426509004E-15
(PID.TID 0000.0001) %MON trcstat_ptracer47_del2       =   0.0000000000000E+00
(PID.TID 0000.0001) %MON trcstat_ptracer48_max        =   3.3110551043547E-14
(PID.TID 0000.0001) %MON trcstat_ptracer48_min        =   2.9775883404819E-14
(PID.TID 0000.0001) %MON trcstat_ptracer48_mean       =   3.1541370780655E-14
(PID.TID 0000.0001) %MON trcstat_ptracer48_sd         =   1.1569515854336E-15
(PID.TID 0000.0001) %MON trcstat_ptracer48_del2       =   0.0000000000000E+00
(PID.TID 0000.0001) %MON trcstat_ptracer49_max        =   3.2411285681092E-14
(PID.TID 0000.0001) %MON trcstat_ptracer49_min        =   2.9775883803275E-14
(PID.TID 0000.0001) %MON trcstat_ptracer49_mean       =   3.1167424588225E-14
(PID.TID 0000.0001) %MON trcstat_ptracer49_sd         =   9.1267774454580E-16
(PID.TID 0000.0001) %MON trcstat_ptracer49_del2       =   0.0000000000000E+00
(PID.TID 0000.0001) %MON trcstat_ptracer50_max        =   3.1842220281157E-14
(PID.TID 0000.0001) %MON trcstat_ptracer50_min        =   2.9775883796960E-14
(PID.TID 0000.0001) %MON trcstat_ptracer50_mean       =   3.0863962170250E-14
(PID.TID 0000.0001) %MON trcstat_ptracer50_sd         =   7.1388483363765E-16
(PID.TID 0000.0001) %MON trcstat_ptracer50_del2       =   0.0000000000000E+00
(PID.TID 0000.0001) %MON trcstat_ptracer51_max        =   3.1382086213233E-14
(PID.TID 0000.0001) %MON trcstat_ptracer51_min        =   2.9775883175618E-14
(PID.TID 0000.0001) %MON trcstat_ptracer51_mean       =   3.0619602672704E-14
(PID.TID 0000.0001) %MON trcstat_ptracer51_sd         =   5.5322417419963E-16
(PID.TID 0000.0001) %MON trcstat_ptracer51_del2       =   0.0000000000000E+00
(PID.TID 0000.0001) %MON trcstat_ptracer52_max        =   3.1013149354266E-14
(PID.TID 0000.0001) %MON trcstat_ptracer52_min        =   2.9775881837793E-14
(PID.TID 0000.0001) %MON trcstat_ptracer52_mean       =   3.0424487895881E-14
(PID.TID 0000.0001) %MON trcstat_ptracer52_sd         =   4.2433582807332E-16
(PID.TID 0000.0001) %MON trcstat_ptracer52_del2       =   0.0000000000000E+00
(PID.TID 0000.0001) %MON trcstat_ptracer53_max        =   2.9921114816098E-14
(PID.TID 0000.0001) %MON trcstat_ptracer53_min        =   2.9885652099608E-14
(PID.TID 0000.0001) %MON trcstat_ptracer53_mean       =   2.9916195568845E-14
(PID.TID 0000.0001) %MON trcstat_ptracer53_sd         =   9.7016472566717E-18
(PID.TID 0000.0001) %MON trcstat_ptracer53_del2       =   0.0000000000000E+00
(PID.TID 0000.0001) %MON trcstat_ptracer54_max        =   2.2005775840410E-09
(PID.TID 0000.0001) %MON trcstat_ptracer54_min        =   9.9252492337907E-10
(PID.TID 0000.0001) %MON trcstat_ptracer54_mean       =   1.0326088405458E-09
(PID.TID 0000.0001) %MON trcstat_ptracer54_sd         =   2.1263675120310E-10
(PID.TID 0000.0001) %MON trcstat_ptracer54_del2       =   0.0000000000000E+00
(PID.TID 0000.0001) %MON trcstat_ptracer55_max        =   2.2094712393796E-09
(PID.TID 0000.0001) %MON trcstat_ptracer55_min        =   9.9252492337907E-10
(PID.TID 0000.0001) %MON trcstat_ptracer55_mean       =   1.0317291160318E-09
(PID.TID 0000.0001) %MON trcstat_ptracer55_sd         =   2.0813932289684E-10
(PID.TID 0000.0001) %MON trcstat_ptracer55_del2       =   0.0000000000000E+00
(PID.TID 0000.0001) %MON trcstat_ptracer56_max        =   1.9862392974316E-09
(PID.TID 0000.0001) %MON trcstat_ptracer56_min        =   9.9252492337907E-10
(PID.TID 0000.0001) %MON trcstat_ptracer56_mean       =   1.0255033048792E-09
(PID.TID 0000.0001) %MON trcstat_ptracer56_sd         =   1.7492944905003E-10
(PID.TID 0000.0001) %MON trcstat_ptracer56_del2       =   0.0000000000000E+00
(PID.TID 0000.0001) %MON trcstat_ptracer57_max        =   1.9072120754927E-09
(PID.TID 0000.0001) %MON trcstat_ptracer57_min        =   9.9252492337907E-10
(PID.TID 0000.0001) %MON trcstat_ptracer57_mean       =   1.0225633554996E-09
(PID.TID 0000.0001) %MON trcstat_ptracer57_sd         =   1.5936450371627E-10
(PID.TID 0000.0001) %MON trcstat_ptracer57_del2       =   0.0000000000000E+00
(PID.TID 0000.0001) %MON trcstat_ptracer58_max        =   1.7121354130782E-09
(PID.TID 0000.0001) %MON trcstat_ptracer58_min        =   9.9252492337907E-10
(PID.TID 0000.0001) %MON trcstat_ptracer58_mean       =   1.0164377057267E-09
(PID.TID 0000.0001) %MON trcstat_ptracer58_sd         =   1.2682349063424E-10
(PID.TID 0000.0001) %MON trcstat_ptracer58_del2       =   0.0000000000000E+00
(PID.TID 0000.0001) %MON trcstat_ptracer59_max        =   1.5522825072931E-09
(PID.TID 0000.0001) %MON trcstat_ptracer59_min        =   9.9252492337907E-10
(PID.TID 0000.0001) %MON trcstat_ptracer59_mean       =   1.0114032372801E-09
(PID.TID 0000.0001) %MON trcstat_ptracer59_sd         =   1.0008422942877E-10
(PID.TID 0000.0001) %MON trcstat_ptracer59_del2       =   0.0000000000000E+00
(PID.TID 0000.0001) %MON trcstat_ptracer60_max        =   1.4223319654732E-09
(PID.TID 0000.0001) %MON trcstat_ptracer60_min        =   9.9252492337907E-10
(PID.TID 0000.0001) %MON trcstat_ptracer60_mean       =   1.0070486240251E-09
(PID.TID 0000.0001) %MON trcstat_ptracer60_sd         =   7.6979963634887E-11
(PID.TID 0000.0001) %MON trcstat_ptracer60_del2       =   0.0000000000000E+00
(PID.TID 0000.0001) %MON trcstat_ptracer61_max        =   1.3188631181392E-09
(PID.TID 0000.0001) %MON trcstat_ptracer61_min        =   9.9252492337907E-10
(PID.TID 0000.0001) %MON trcstat_ptracer61_mean       =   1.0035679296402E-09
(PID.TID 0000.0001) %MON trcstat_ptracer61_sd         =   5.8508861436781E-11
(PID.TID 0000.0001) %MON trcstat_ptracer61_del2       =   0.0000000000000E+00
(PID.TID 0000.0001) %MON trcstat_ptracer62_max        =   1.2372829404680E-09
(PID.TID 0000.0001) %MON trcstat_ptracer62_min        =   9.9252492337907E-10
(PID.TID 0000.0001) %MON trcstat_ptracer62_mean       =   1.0008166372677E-09
(PID.TID 0000.0001) %MON trcstat_ptracer62_sd         =   4.3903096642339E-11
(PID.TID 0000.0001) %MON trcstat_ptracer62_del2       =   0.0000000000000E+00
(PID.TID 0000.0001) %MON trcstat_ptracer63_max        =   1.1737559083106E-09
(PID.TID 0000.0001) %MON trcstat_ptracer63_min        =   9.9252492337907E-10
(PID.TID 0000.0001) %MON trcstat_ptracer63_mean       =   9.9870940627884E-10
(PID.TID 0000.0001) %MON trcstat_ptracer63_sd         =   3.2706472251077E-11
(PID.TID 0000.0001) %MON trcstat_ptracer63_del2       =   0.0000000000000E+00
(PID.TID 0000.0001) %MON trcstat_ptracer64_max        =   1.1240144358369E-09
(PID.TID 0000.0001) %MON trcstat_ptracer64_min        =   9.9252492337907E-10
(PID.TID 0000.0001) %MON trcstat_ptracer64_mean       =   9.9701409835170E-10
(PID.TID 0000.0001) %MON trcstat_ptracer64_sd         =   2.3691516366930E-11
(PID.TID 0000.0001) %MON trcstat_ptracer64_del2       =   0.0000000000000E+00
(PID.TID 0000.0001) %MON trcstat_ptracer65_max        =   1.0855534433235E-09
(PID.TID 0000.0001) %MON trcstat_ptracer65_min        =   9.9252492337907E-10
(PID.TID 0000.0001) %MON trcstat_ptracer65_mean       =   9.9570273483929E-10
(PID.TID 0000.0001) %MON trcstat_ptracer65_sd         =   1.6705231578480E-11
(PID.TID 0000.0001) %MON trcstat_ptracer65_del2       =   0.0000000000000E+00
(PID.TID 0000.0001) %MON trcstat_ptracer66_max        =   1.0560038034278E-09
(PID.TID 0000.0001) %MON trcstat_ptracer66_min        =   9.9252492337907E-10
(PID.TID 0000.0001) %MON trcstat_ptracer66_mean       =   9.9469499191666E-10
(PID.TID 0000.0001) %MON trcstat_ptracer66_sd         =   1.1320000176723E-11
(PID.TID 0000.0001) %MON trcstat_ptracer66_del2       =   0.0000000000000E+00
(PID.TID 0000.0001) %MON trcstat_ptracer67_max        =   1.0334764182976E-09
(PID.TID 0000.0001) %MON trcstat_ptracer67_min        =   9.9252492337907E-10
(PID.TID 0000.0001) %MON trcstat_ptracer67_mean       =   9.9392673045920E-10
(PID.TID 0000.0001) %MON trcstat_ptracer67_sd         =   7.1948864614417E-12
(PID.TID 0000.0001) %MON trcstat_ptracer67_del2       =   0.0000000000000E+00
(PID.TID 0000.0001) %MON trcstat_ptracer68_max        =   1.0165022838335E-09
(PID.TID 0000.0001) %MON trcstat_ptracer68_min        =   9.9252492337907E-10
(PID.TID 0000.0001) %MON trcstat_ptracer68_mean       =   9.9334713246983E-10
(PID.TID 0000.0001) %MON trcstat_ptracer68_sd         =   4.0651834989604E-12
(PID.TID 0000.0001) %MON trcstat_ptracer68_del2       =   0.0000000000000E+00
(PID.TID 0000.0001) %MON trcstat_ptracer69_max        =   4.4083634919477E-10
(PID.TID 0000.0001) %MON trcstat_ptracer69_min        =   4.3467281549617E-10
(PID.TID 0000.0001) %MON trcstat_ptracer69_mean       =   4.3942023433519E-10
(PID.TID 0000.0001) %MON trcstat_ptracer69_sd         =   1.6621141035425E-12
(PID.TID 0000.0001) %MON trcstat_ptracer69_del2       =   0.0000000000000E+00
(PID.TID 0000.0001) %MON trcstat_ptracer70_max        =   3.0102385551938E-10
(PID.TID 0000.0001) %MON trcstat_ptracer70_min        =   2.6844016934080E-10
(PID.TID 0000.0001) %MON trcstat_ptracer70_mean       =   2.9982659753230E-10
(PID.TID 0000.0001) %MON trcstat_ptracer70_sd         =   1.7722892995040E-12
(PID.TID 0000.0001) %MON trcstat_ptracer70_del2       =   0.0000000000000E+00
(PID.TID 0000.0001) %MON trcstat_ptracer71_max        =   2.7163429247222E-01
(PID.TID 0000.0001) %MON trcstat_ptracer71_min        =   3.9856827963648E-11
(PID.TID 0000.0001) %MON trcstat_ptracer71_mean       =   3.2948821739161E-02
(PID.TID 0000.0001) %MON trcstat_ptracer71_sd         =   8.3375166407125E-02
(PID.TID 0000.0001) %MON trcstat_ptracer71_del2       =   0.0000000000000E+00
(PID.TID 0000.0001) %MON trcstat_ptracer72_max        =   3.0166500457028E-02
(PID.TID 0000.0001) %MON trcstat_ptracer72_min        =   3.8767313884803E-07
(PID.TID 0000.0001) %MON trcstat_ptracer72_mean       =   1.4856377808538E-02
(PID.TID 0000.0001) %MON trcstat_ptracer72_sd         =   1.1036124529656E-02
(PID.TID 0000.0001) %MON trcstat_ptracer72_del2       =   0.0000000000000E+00
(PID.TID 0000.0001) %MON trcstat_ptracer73_max        =   1.6977143662733E-05
(PID.TID 0000.0001) %MON trcstat_ptracer73_min        =   2.0552996581596E-15
(PID.TID 0000.0001) %MON trcstat_ptracer73_mean       =   2.0593013571702E-06
(PID.TID 0000.0001) %MON trcstat_ptracer73_sd         =   5.2109478960202E-06
(PID.TID 0000.0001) %MON trcstat_ptracer73_del2       =   0.0000000000000E+00
(PID.TID 0000.0001) %MON trcstat_ptracer74_max        =   1.8854063514768E-06
(PID.TID 0000.0001) %MON trcstat_ptracer74_min        =   2.4229372775060E-11
(PID.TID 0000.0001) %MON trcstat_ptracer74_mean       =   9.2852362082046E-07
(PID.TID 0000.0001) %MON trcstat_ptracer74_sd         =   6.8975780831815E-07
(PID.TID 0000.0001) %MON trcstat_ptracer74_del2       =   0.0000000000000E+00
(PID.TID 0000.0001) // =======================================================
(PID.TID 0000.0001) // End MONITOR ptracers field statistics
(PID.TID 0000.0001) // =======================================================
(PID.TID 0000.0001) // =======================================================
(PID.TID 0000.0001) // Begin MONITOR dynamic field statistics
(PID.TID 0000.0001) // =======================================================
(PID.TID 0000.0001) %MON time_tsnumber                =                     4
(PID.TID 0000.0001) %MON time_secondsf                =   4.3200000000000E+04
(PID.TID 0000.0001) %MON dynstat_eta_max              =   0.0000000000000E+00
(PID.TID 0000.0001) %MON dynstat_eta_min              =   0.0000000000000E+00
(PID.TID 0000.0001) %MON dynstat_eta_mean             =   0.0000000000000E+00
(PID.TID 0000.0001) %MON dynstat_eta_sd               =   0.0000000000000E+00
(PID.TID 0000.0001) %MON dynstat_eta_del2             =   0.0000000000000E+00
(PID.TID 0000.0001) %MON dynstat_uvel_max             =   0.0000000000000E+00
(PID.TID 0000.0001) %MON dynstat_uvel_min             =   0.0000000000000E+00
(PID.TID 0000.0001) %MON dynstat_uvel_mean            =   0.0000000000000E+00
(PID.TID 0000.0001) %MON dynstat_uvel_sd              =   0.0000000000000E+00
(PID.TID 0000.0001) %MON dynstat_uvel_del2            =   0.0000000000000E+00
(PID.TID 0000.0001) %MON dynstat_vvel_max             =   0.0000000000000E+00
(PID.TID 0000.0001) %MON dynstat_vvel_min             =   0.0000000000000E+00
(PID.TID 0000.0001) %MON dynstat_vvel_mean            =   0.0000000000000E+00
(PID.TID 0000.0001) %MON dynstat_vvel_sd              =   0.0000000000000E+00
(PID.TID 0000.0001) %MON dynstat_vvel_del2            =   0.0000000000000E+00
(PID.TID 0000.0001) %MON dynstat_wvel_max             =   0.0000000000000E+00
(PID.TID 0000.0001) %MON dynstat_wvel_min             =   0.0000000000000E+00
(PID.TID 0000.0001) %MON dynstat_wvel_mean            =   0.0000000000000E+00
(PID.TID 0000.0001) %MON dynstat_wvel_sd              =   0.0000000000000E+00
(PID.TID 0000.0001) %MON dynstat_wvel_del2            =   0.0000000000000E+00
(PID.TID 0000.0001) %MON dynstat_theta_max            =   6.4955094188052E+00
(PID.TID 0000.0001) %MON dynstat_theta_min            =  -9.3886553567890E-01
(PID.TID 0000.0001) %MON dynstat_theta_mean           =   1.5612872667614E-01
(PID.TID 0000.0001) %MON dynstat_theta_sd             =   2.0856205097386E+00
(PID.TID 0000.0001) %MON dynstat_theta_del2           =   0.0000000000000E+00
(PID.TID 0000.0001) %MON dynstat_salt_max             =   3.5000000000000E+01
(PID.TID 0000.0001) %MON dynstat_salt_min             =   3.5000000000000E+01
(PID.TID 0000.0001) %MON dynstat_salt_mean            =   3.5000000000000E+01
(PID.TID 0000.0001) %MON dynstat_salt_sd              =   7.1054273576010E-15
(PID.TID 0000.0001) %MON dynstat_salt_del2            =   0.0000000000000E+00
(PID.TID 0000.0001) %MON dynstat_sst_max              =   6.4955094188052E+00
(PID.TID 0000.0001) %MON dynstat_sst_min              =   6.4955094188052E+00
(PID.TID 0000.0001) %MON dynstat_sst_mean             =   6.4955094188052E+00
(PID.TID 0000.0001) %MON dynstat_sst_sd               =   0.0000000000000E+00
(PID.TID 0000.0001) %MON dynstat_sst_del2             =   0.0000000000000E+00
(PID.TID 0000.0001) %MON dynstat_sss_max              =   3.5000000000000E+01
(PID.TID 0000.0001) %MON dynstat_sss_min              =   3.5000000000000E+01
(PID.TID 0000.0001) %MON dynstat_sss_mean             =   3.5000000000000E+01
(PID.TID 0000.0001) %MON dynstat_sss_sd               =   0.0000000000000E+00
(PID.TID 0000.0001) %MON dynstat_sss_del2             =   0.0000000000000E+00
(PID.TID 0000.0001) %MON forcing_qnet_max             =   0.0000000000000E+00
(PID.TID 0000.0001) %MON forcing_qnet_min             =   0.0000000000000E+00
(PID.TID 0000.0001) %MON forcing_qnet_mean            =   0.0000000000000E+00
(PID.TID 0000.0001) %MON forcing_qnet_sd              =   0.0000000000000E+00
(PID.TID 0000.0001) %MON forcing_qnet_del2            =   0.0000000000000E+00
(PID.TID 0000.0001) %MON forcing_qsw_max              =   0.0000000000000E+00
(PID.TID 0000.0001) %MON forcing_qsw_min              =   0.0000000000000E+00
(PID.TID 0000.0001) %MON forcing_qsw_mean             =   0.0000000000000E+00
(PID.TID 0000.0001) %MON forcing_qsw_sd               =   0.0000000000000E+00
(PID.TID 0000.0001) %MON forcing_qsw_del2             =   0.0000000000000E+00
(PID.TID 0000.0001) %MON forcing_empmr_max            =   0.0000000000000E+00
(PID.TID 0000.0001) %MON forcing_empmr_min            =   0.0000000000000E+00
(PID.TID 0000.0001) %MON forcing_empmr_mean           =   0.0000000000000E+00
(PID.TID 0000.0001) %MON forcing_empmr_sd             =   0.0000000000000E+00
(PID.TID 0000.0001) %MON forcing_empmr_del2           =   0.0000000000000E+00
(PID.TID 0000.0001) %MON forcing_fu_max               =   2.2681041941047E+00
(PID.TID 0000.0001) %MON forcing_fu_min               =   2.2681041941047E+00
(PID.TID 0000.0001) %MON forcing_fu_mean              =   2.2681041941047E+00
(PID.TID 0000.0001) %MON forcing_fu_sd                =   0.0000000000000E+00
(PID.TID 0000.0001) %MON forcing_fu_del2              =   0.0000000000000E+00
(PID.TID 0000.0001) %MON forcing_fv_max               =   1.1514206402004E+00
(PID.TID 0000.0001) %MON forcing_fv_min               =   1.1514206402004E+00
(PID.TID 0000.0001) %MON forcing_fv_mean              =   1.1514206402004E+00
(PID.TID 0000.0001) %MON forcing_fv_sd                =   0.0000000000000E+00
(PID.TID 0000.0001) %MON forcing_fv_del2              =   0.0000000000000E+00
(PID.TID 0000.0001) %MON advcfl_uvel_max              =   0.0000000000000E+00
(PID.TID 0000.0001) %MON advcfl_vvel_max              =   0.0000000000000E+00
(PID.TID 0000.0001) %MON advcfl_wvel_max              =   0.0000000000000E+00
(PID.TID 0000.0001) %MON advcfl_W_hf_max              =   0.0000000000000E+00
(PID.TID 0000.0001) %MON pe_b_mean                    =   0.0000000000000E+00
(PID.TID 0000.0001) %MON ke_max                       =   0.0000000000000E+00
(PID.TID 0000.0001) %MON ke_mean                      =   0.0000000000000E+00
(PID.TID 0000.0001) %MON ke_vol                       =   4.1199767883485E+13
(PID.TID 0000.0001) %MON vort_r_min                   =   0.0000000000000E+00
(PID.TID 0000.0001) %MON vort_r_max                   =   0.0000000000000E+00
(PID.TID 0000.0001) %MON vort_a_mean                  =  -4.5067801836625E-05
(PID.TID 0000.0001) %MON vort_a_sd                    =  -4.1359030627651E-25
(PID.TID 0000.0001) %MON vort_p_mean                  =  -4.5067801836625E-05
(PID.TID 0000.0001) %MON vort_p_sd                    =   0.0000000000000E+00
(PID.TID 0000.0001) %MON surfExpan_theta_mean         =   0.0000000000000E+00
(PID.TID 0000.0001) %MON surfExpan_salt_mean          =   0.0000000000000E+00
(PID.TID 0000.0001) // =======================================================
(PID.TID 0000.0001) // End MONITOR dynamic field statistics
(PID.TID 0000.0001) // =======================================================
(PID.TID 0000.0001) // =======================================================
(PID.TID 0000.0001) // Begin MONITOR ptracer field statistics
(PID.TID 0000.0001) // =======================================================
(PID.TID 0000.0001) %MON trcstat_ptracer01_max        =   2.1623998898885E+03
(PID.TID 0000.0001) %MON trcstat_ptracer01_min        =   2.0972926832163E+03
(PID.TID 0000.0001) %MON trcstat_ptracer01_mean       =   2.1557233177770E+03
(PID.TID 0000.0001) %MON trcstat_ptracer01_sd         =   1.1436552843809E+01
(PID.TID 0000.0001) %MON trcstat_ptracer01_del2       =   0.0000000000000E+00
(PID.TID 0000.0001) %MON trcstat_ptracer02_max        =   1.5341495686222E+01
(PID.TID 0000.0001) %MON trcstat_ptracer02_min        =   1.1901694567780E+01
(PID.TID 0000.0001) %MON trcstat_ptracer02_mean       =   1.4471950697547E+01
(PID.TID 0000.0001) %MON trcstat_ptracer02_sd         =   9.1931337726935E-01
(PID.TID 0000.0001) %MON trcstat_ptracer02_del2       =   0.0000000000000E+00
(PID.TID 0000.0001) %MON trcstat_ptracer03_max        =   3.7780302303388E-02
(PID.TID 0000.0001) %MON trcstat_ptracer03_min        =   2.7465711265140E-10
(PID.TID 0000.0001) %MON trcstat_ptracer03_mean       =   7.7378026382855E-03
(PID.TID 0000.0001) %MON trcstat_ptracer03_sd         =   1.0719195589214E-02
(PID.TID 0000.0001) %MON trcstat_ptracer03_del2       =   0.0000000000000E+00
(PID.TID 0000.0001) %MON trcstat_ptracer04_max        =   1.6469228562660E-03
(PID.TID 0000.0001) %MON trcstat_ptracer04_min        =   1.2519214306997E-09
(PID.TID 0000.0001) %MON trcstat_ptracer04_mean       =   2.9213098960438E-04
(PID.TID 0000.0001) %MON trcstat_ptracer04_sd         =   4.3405086899472E-04
(PID.TID 0000.0001) %MON trcstat_ptracer04_del2       =   0.0000000000000E+00
(PID.TID 0000.0001) %MON trcstat_ptracer05_max        =   9.1622557324199E-04
(PID.TID 0000.0001) %MON trcstat_ptracer05_min        =   6.8832048223408E-13
(PID.TID 0000.0001) %MON trcstat_ptracer05_mean       =   5.7979430184837E-04
(PID.TID 0000.0001) %MON trcstat_ptracer05_sd         =   3.7870316328312E-04
(PID.TID 0000.0001) %MON trcstat_ptracer05_del2       =   0.0000000000000E+00
(PID.TID 0000.0001) %MON trcstat_ptracer06_max        =   5.2760200689036E-09
(PID.TID 0000.0001) %MON trcstat_ptracer06_min        =   4.6478420807269E-09
(PID.TID 0000.0001) %MON trcstat_ptracer06_mean       =   5.1056528180819E-09
(PID.TID 0000.0001) %MON trcstat_ptracer06_sd         =   1.7367577153174E-10
(PID.TID 0000.0001) %MON trcstat_ptracer06_del2       =   0.0000000000000E+00
(PID.TID 0000.0001) %MON trcstat_ptracer07_max        =   5.4883203674595E-09
(PID.TID 0000.0001) %MON trcstat_ptracer07_min        =   4.9185108465451E-09
(PID.TID 0000.0001) %MON trcstat_ptracer07_mean       =   5.3442084412203E-09
(PID.TID 0000.0001) %MON trcstat_ptracer07_sd         =   1.5578295294332E-10
(PID.TID 0000.0001) %MON trcstat_ptracer07_del2       =   0.0000000000000E+00
(PID.TID 0000.0001) %MON trcstat_ptracer08_max        =   5.6751318051163E-09
(PID.TID 0000.0001) %MON trcstat_ptracer08_min        =   5.1793728851869E-09
(PID.TID 0000.0001) %MON trcstat_ptracer08_mean       =   5.5572130340431E-09
(PID.TID 0000.0001) %MON trcstat_ptracer08_sd         =   1.3426617828738E-10
(PID.TID 0000.0001) %MON trcstat_ptracer08_del2       =   0.0000000000000E+00
(PID.TID 0000.0001) %MON trcstat_ptracer09_max        =   5.8382239389789E-09
(PID.TID 0000.0001) %MON trcstat_ptracer09_min        =   5.4219494608295E-09
(PID.TID 0000.0001) %MON trcstat_ptracer09_mean       =   5.7444558250573E-09
(PID.TID 0000.0001) %MON trcstat_ptracer09_sd         =   1.1181062957906E-10
(PID.TID 0000.0001) %MON trcstat_ptracer09_del2       =   0.0000000000000E+00
(PID.TID 0000.0001) %MON trcstat_ptracer10_max        =   5.9774115472434E-09
(PID.TID 0000.0001) %MON trcstat_ptracer10_min        =   5.6384386529890E-09
(PID.TID 0000.0001) %MON trcstat_ptracer10_mean       =   5.9047499863809E-09
(PID.TID 0000.0001) %MON trcstat_ptracer10_sd         =   9.0455417925463E-11
(PID.TID 0000.0001) %MON trcstat_ptracer10_del2       =   0.0000000000000E+00
(PID.TID 0000.0001) %MON trcstat_ptracer11_max        =   6.0943220489538E-09
(PID.TID 0000.0001) %MON trcstat_ptracer11_min        =   5.8253616111796E-09
(PID.TID 0000.0001) %MON trcstat_ptracer11_mean       =   6.0393418768093E-09
(PID.TID 0000.0001) %MON trcstat_ptracer11_sd         =   7.1227217277831E-11
(PID.TID 0000.0001) %MON trcstat_ptracer11_del2       =   0.0000000000000E+00
(PID.TID 0000.0001) %MON trcstat_ptracer12_max        =   6.1916370209892E-09
(PID.TID 0000.0001) %MON trcstat_ptracer12_min        =   5.9828801321782E-09
(PID.TID 0000.0001) %MON trcstat_ptracer12_mean       =   6.1508710360773E-09
(PID.TID 0000.0001) %MON trcstat_ptracer12_sd         =   5.4884209075793E-11
(PID.TID 0000.0001) %MON trcstat_ptracer12_del2       =   0.0000000000000E+00
(PID.TID 0000.0001) %MON trcstat_ptracer13_max        =   6.2719810392348E-09
(PID.TID 0000.0001) %MON trcstat_ptracer13_min        =   6.1130878577235E-09
(PID.TID 0000.0001) %MON trcstat_ptracer13_mean       =   6.2423457343522E-09
(PID.TID 0000.0001) %MON trcstat_ptracer13_sd         =   4.1419768016912E-11
(PID.TID 0000.0001) %MON trcstat_ptracer13_del2       =   0.0000000000000E+00
(PID.TID 0000.0001) %MON trcstat_ptracer14_max        =   6.3380684315763E-09
(PID.TID 0000.0001) %MON trcstat_ptracer14_min        =   6.2190837613420E-09
(PID.TID 0000.0001) %MON trcstat_ptracer14_mean       =   6.3166940891046E-09
(PID.TID 0000.0001) %MON trcstat_ptracer14_sd         =   3.0635632459352E-11
(PID.TID 0000.0001) %MON trcstat_ptracer14_del2       =   0.0000000000000E+00
(PID.TID 0000.0001) %MON trcstat_ptracer15_max        =   6.3919048455599E-09
(PID.TID 0000.0001) %MON trcstat_ptracer15_min        =   6.3043029116803E-09
(PID.TID 0000.0001) %MON trcstat_ptracer15_mean       =   6.3766529772477E-09
(PID.TID 0000.0001) %MON trcstat_ptracer15_sd         =   2.2164031683203E-11
(PID.TID 0000.0001) %MON trcstat_ptracer15_del2       =   0.0000000000000E+00
(PID.TID 0000.0001) %MON trcstat_ptracer16_max        =   6.4354595798886E-09
(PID.TID 0000.0001) %MON trcstat_ptracer16_min        =   6.3720978373722E-09
(PID.TID 0000.0001) %MON trcstat_ptracer16_mean       =   6.4245995298780E-09
(PID.TID 0000.0001) %MON trcstat_ptracer16_sd         =   1.5709625486021E-11
(PID.TID 0000.0001) %MON trcstat_ptracer16_del2       =   0.0000000000000E+00
(PID.TID 0000.0001) %MON trcstat_ptracer17_max        =   6.4704657017736E-09
(PID.TID 0000.0001) %MON trcstat_ptracer17_min        =   6.4255146557380E-09
(PID.TID 0000.0001) %MON trcstat_ptracer17_mean       =   6.4626526390984E-09
(PID.TID 0000.0001) %MON trcstat_ptracer17_sd         =   1.0880359754519E-11
(PID.TID 0000.0001) %MON trcstat_ptracer17_del2       =   0.0000000000000E+00
(PID.TID 0000.0001) %MON trcstat_ptracer18_max        =   6.5056570650606E-09
(PID.TID 0000.0001) %MON trcstat_ptracer18_min        =   6.4672007778754E-09
(PID.TID 0000.0001) %MON trcstat_ptracer18_mean       =   6.4925939662335E-09
(PID.TID 0000.0001) %MON trcstat_ptracer18_sd         =   7.3763494630728E-12
(PID.TID 0000.0001) %MON trcstat_ptracer18_del2       =   0.0000000000000E+00
(PID.TID 0000.0001) %MON trcstat_ptracer19_max        =   6.5337033146571E-09
(PID.TID 0000.0001) %MON trcstat_ptracer19_min        =   6.4993919301462E-09
(PID.TID 0000.0001) %MON trcstat_ptracer19_mean       =   6.5159176989794E-09
(PID.TID 0000.0001) %MON trcstat_ptracer19_sd         =   4.9686066394964E-12
(PID.TID 0000.0001) %MON trcstat_ptracer19_del2       =   0.0000000000000E+00
(PID.TID 0000.0001) %MON trcstat_ptracer20_max        =   6.5531442294148E-09
(PID.TID 0000.0001) %MON trcstat_ptracer20_min        =   6.5156752816270E-09
(PID.TID 0000.0001) %MON trcstat_ptracer20_mean       =   6.5338654860100E-09
(PID.TID 0000.0001) %MON trcstat_ptracer20_sd         =   3.5489863000914E-12
(PID.TID 0000.0001) %MON trcstat_ptracer20_del2       =   0.0000000000000E+00
(PID.TID 0000.0001) %MON trcstat_ptracer21_max        =   6.6017831294850E-09
(PID.TID 0000.0001) %MON trcstat_ptracer21_min        =   6.5913579957787E-09
(PID.TID 0000.0001) %MON trcstat_ptracer21_mean       =   6.6003361408631E-09
(PID.TID 0000.0001) %MON trcstat_ptracer21_sd         =   2.8536519024764E-12
(PID.TID 0000.0001) %MON trcstat_ptracer21_del2       =   0.0000000000000E+00
(PID.TID 0000.0001) %MON trcstat_ptracer22_max        =   1.3253599636047E-09
(PID.TID 0000.0001) %MON trcstat_ptracer22_min        =   1.0456807229220E-09
(PID.TID 0000.0001) %MON trcstat_ptracer22_mean       =   1.1194639315016E-09
(PID.TID 0000.0001) %MON trcstat_ptracer22_sd         =   7.6188391448695E-11
(PID.TID 0000.0001) %MON trcstat_ptracer22_del2       =   0.0000000000000E+00
(PID.TID 0000.0001) %MON trcstat_ptracer23_max        =   1.2081129340083E-09
(PID.TID 0000.0001) %MON trcstat_ptracer23_min        =   9.5456471910921E-10
(PID.TID 0000.0001) %MON trcstat_ptracer23_mean       =   1.0170776986394E-09
(PID.TID 0000.0001) %MON trcstat_ptracer23_sd         =   6.8548318863052E-11
(PID.TID 0000.0001) %MON trcstat_ptracer23_del2       =   0.0000000000000E+00
(PID.TID 0000.0001) %MON trcstat_ptracer24_max        =   1.0947277201529E-09
(PID.TID 0000.0001) %MON trcstat_ptracer24_min        =   8.7438814186349E-10
(PID.TID 0000.0001) %MON trcstat_ptracer24_mean       =   9.2562879729401E-10
(PID.TID 0000.0001) %MON trcstat_ptracer24_sd         =   5.9260216134523E-11
(PID.TID 0000.0001) %MON trcstat_ptracer24_del2       =   0.0000000000000E+00
(PID.TID 0000.0001) %MON trcstat_ptracer25_max        =   9.8961710631898E-10
(PID.TID 0000.0001) %MON trcstat_ptracer25_min        =   8.0439152501610E-10
(PID.TID 0000.0001) %MON trcstat_ptracer25_mean       =   8.4526257697349E-10
(PID.TID 0000.0001) %MON trcstat_ptracer25_sd         =   4.9618275400574E-11
(PID.TID 0000.0001) %MON trcstat_ptracer25_del2       =   0.0000000000000E+00
(PID.TID 0000.0001) %MON trcstat_ptracer26_max        =   8.9546384206111E-10
(PID.TID 0000.0001) %MON trcstat_ptracer26_min        =   7.4465436342753E-10
(PID.TID 0000.0001) %MON trcstat_ptracer26_mean       =   7.7641799834310E-10
(PID.TID 0000.0001) %MON trcstat_ptracer26_sd         =   4.0319512628719E-11
(PID.TID 0000.0001) %MON trcstat_ptracer26_del2       =   0.0000000000000E+00
(PID.TID 0000.0001) %MON trcstat_ptracer27_max        =   8.1418858935851E-10
(PID.TID 0000.0001) %MON trcstat_ptracer27_min        =   6.9447819467542E-10
(PID.TID 0000.0001) %MON trcstat_ptracer27_mean       =   7.1862477304199E-10
(PID.TID 0000.0001) %MON trcstat_ptracer27_sd         =   3.1968088013564E-11
(PID.TID 0000.0001) %MON trcstat_ptracer27_del2       =   0.0000000000000E+00
(PID.TID 0000.0001) %MON trcstat_ptracer28_max        =   7.4560544768517E-10
(PID.TID 0000.0001) %MON trcstat_ptracer28_min        =   6.5271212829520E-10
(PID.TID 0000.0001) %MON trcstat_ptracer28_mean       =   6.7071865046527E-10
(PID.TID 0000.0001) %MON trcstat_ptracer28_sd         =   2.4814640863638E-11
(PID.TID 0000.0001) %MON trcstat_ptracer28_del2       =   0.0000000000000E+00
(PID.TID 0000.0001) %MON trcstat_ptracer29_max        =   6.8890000000560E-10
(PID.TID 0000.0001) %MON trcstat_ptracer29_min        =   6.1822973804726E-10
(PID.TID 0000.0001) %MON trcstat_ptracer29_mean       =   6.3142770094830E-10
(PID.TID 0000.0001) %MON trcstat_ptracer29_sd         =   1.8901999536179E-11
(PID.TID 0000.0001) %MON trcstat_ptracer29_del2       =   0.0000000000000E+00
(PID.TID 0000.0001) %MON trcstat_ptracer30_max        =   6.4271759872855E-10
(PID.TID 0000.0001) %MON trcstat_ptracer30_min        =   5.8997880887528E-10
(PID.TID 0000.0001) %MON trcstat_ptracer30_mean       =   5.9949379091234E-10
(PID.TID 0000.0001) %MON trcstat_ptracer30_sd         =   1.4138979913118E-11
(PID.TID 0000.0001) %MON trcstat_ptracer30_del2       =   0.0000000000000E+00
(PID.TID 0000.0001) %MON trcstat_ptracer31_max        =   6.0557193666636E-10
(PID.TID 0000.0001) %MON trcstat_ptracer31_min        =   5.6700690860597E-10
(PID.TID 0000.0001) %MON trcstat_ptracer31_mean       =   5.7375002212811E-10
(PID.TID 0000.0001) %MON trcstat_ptracer31_sd         =   1.0375629591900E-11
(PID.TID 0000.0001) %MON trcstat_ptracer31_del2       =   0.0000000000000E+00
(PID.TID 0000.0001) %MON trcstat_ptracer32_max        =   5.7599575669729E-10
(PID.TID 0000.0001) %MON trcstat_ptracer32_min        =   5.4847104041695E-10
(PID.TID 0000.0001) %MON trcstat_ptracer32_mean       =   5.5315613214591E-10
(PID.TID 0000.0001) %MON trcstat_ptracer32_sd         =   7.4431546308810E-12
(PID.TID 0000.0001) %MON trcstat_ptracer32_del2       =   0.0000000000000E+00
(PID.TID 0000.0001) %MON trcstat_ptracer33_max        =   5.5276787307271E-10
(PID.TID 0000.0001) %MON trcstat_ptracer33_min        =   5.3363735018427E-10
(PID.TID 0000.0001) %MON trcstat_ptracer33_mean       =   5.3681188935024E-10
(PID.TID 0000.0001) %MON trcstat_ptracer33_sd         =   5.1846312994573E-12
(PID.TID 0000.0001) %MON trcstat_ptracer33_del2       =   0.0000000000000E+00
(PID.TID 0000.0001) %MON trcstat_ptracer34_max        =   5.3470653716223E-10
(PID.TID 0000.0001) %MON trcstat_ptracer34_min        =   5.2187501924856E-10
(PID.TID 0000.0001) %MON trcstat_ptracer34_mean       =   5.2395187090161E-10
(PID.TID 0000.0001) %MON trcstat_ptracer34_sd         =   3.4620722732497E-12
(PID.TID 0000.0001) %MON trcstat_ptracer34_del2       =   0.0000000000000E+00
(PID.TID 0000.0001) %MON trcstat_ptracer35_max        =   5.2080819893029E-10
(PID.TID 0000.0001) %MON trcstat_ptracer35_min        =   5.1264709505395E-10
(PID.TID 0000.0001) %MON trcstat_ptracer35_mean       =   5.1393419273483E-10
(PID.TID 0000.0001) %MON trcstat_ptracer35_sd         =   2.1624048857961E-12
(PID.TID 0000.0001) %MON trcstat_ptracer35_del2       =   0.0000000000000E+00
(PID.TID 0000.0001) %MON trcstat_ptracer36_max        =   5.1020705287154E-10
(PID.TID 0000.0001) %MON trcstat_ptracer36_min        =   5.0533853323361E-10
(PID.TID 0000.0001) %MON trcstat_ptracer36_mean       =   5.0622548129444E-10
(PID.TID 0000.0001) %MON trcstat_ptracer36_sd         =   1.2034564349767E-12
(PID.TID 0000.0001) %MON trcstat_ptracer36_del2       =   0.0000000000000E+00
(PID.TID 0000.0001) %MON trcstat_ptracer37_max        =   4.9824776143949E-10
(PID.TID 0000.0001) %MON trcstat_ptracer37_min        =   4.9746095893024E-10
(PID.TID 0000.0001) %MON trcstat_ptracer37_mean       =   4.9813855475585E-10
(PID.TID 0000.0001) %MON trcstat_ptracer37_sd         =   2.1536994542494E-13
(PID.TID 0000.0001) %MON trcstat_ptracer37_del2       =   0.0000000000000E+00
(PID.TID 0000.0001) %MON trcstat_ptracer38_max        =   5.9200229311663E-14
(PID.TID 0000.0001) %MON trcstat_ptracer38_min        =   2.9701740726727E-14
(PID.TID 0000.0001) %MON trcstat_ptracer38_mean       =   4.6506623544875E-14
(PID.TID 0000.0001) %MON trcstat_ptracer38_sd         =   1.0813790384245E-14
(PID.TID 0000.0001) %MON trcstat_ptracer38_del2       =   0.0000000000000E+00
(PID.TID 0000.0001) %MON trcstat_ptracer39_max        =   5.5062609935226E-14
(PID.TID 0000.0001) %MON trcstat_ptracer39_min        =   2.9701780158642E-14
(PID.TID 0000.0001) %MON trcstat_ptracer39_mean       =   4.3949513366440E-14
(PID.TID 0000.0001) %MON trcstat_ptracer39_sd         =   9.1906594542637E-15
(PID.TID 0000.0001) %MON trcstat_ptracer39_del2       =   0.0000000000000E+00
(PID.TID 0000.0001) %MON trcstat_ptracer40_max        =   5.1299592218765E-14
(PID.TID 0000.0001) %MON trcstat_ptracer40_min        =   2.9701714718190E-14
(PID.TID 0000.0001) %MON trcstat_ptracer40_mean       =   4.1689379243488E-14
(PID.TID 0000.0001) %MON trcstat_ptracer40_sd         =   7.7506786669794E-15
(PID.TID 0000.0001) %MON trcstat_ptracer40_del2       =   0.0000000000000E+00
(PID.TID 0000.0001) %MON trcstat_ptracer41_max        =   4.7939907520870E-14
(PID.TID 0000.0001) %MON trcstat_ptracer41_min        =   2.9701671528405E-14
(PID.TID 0000.0001) %MON trcstat_ptracer41_mean       =   3.9717147749792E-14
(PID.TID 0000.0001) %MON trcstat_ptracer41_sd         =   6.4895517088750E-15
(PID.TID 0000.0001) %MON trcstat_ptracer41_del2       =   0.0000000000000E+00
(PID.TID 0000.0001) %MON trcstat_ptracer42_max        =   4.4962996306811E-14
(PID.TID 0000.0001) %MON trcstat_ptracer42_min        =   2.9701644125985E-14
(PID.TID 0000.0001) %MON trcstat_ptracer42_mean       =   3.8010197279755E-14
(PID.TID 0000.0001) %MON trcstat_ptracer42_sd         =   5.3942034987522E-15
(PID.TID 0000.0001) %MON trcstat_ptracer42_del2       =   0.0000000000000E+00
(PID.TID 0000.0001) %MON trcstat_ptracer43_max        =   4.2364982917248E-14
(PID.TID 0000.0001) %MON trcstat_ptracer43_min        =   2.9701627792902E-14
(PID.TID 0000.0001) %MON trcstat_ptracer43_mean       =   3.6546104825142E-14
(PID.TID 0000.0001) %MON trcstat_ptracer43_sd         =   4.4517385470403E-15
(PID.TID 0000.0001) %MON trcstat_ptracer43_del2       =   0.0000000000000E+00
(PID.TID 0000.0001) %MON trcstat_ptracer44_max        =   4.0122331928179E-14
(PID.TID 0000.0001) %MON trcstat_ptracer44_min        =   2.9701619057599E-14
(PID.TID 0000.0001) %MON trcstat_ptracer44_mean       =   3.5301514390380E-14
(PID.TID 0000.0001) %MON trcstat_ptracer44_sd         =   3.6483282015636E-15
(PID.TID 0000.0001) %MON trcstat_ptracer44_del2       =   0.0000000000000E+00
(PID.TID 0000.0001) %MON trcstat_ptracer45_max        =   3.8208640625476E-14
(PID.TID 0000.0001) %MON trcstat_ptracer45_min        =   2.9701615327822E-14
(PID.TID 0000.0001) %MON trcstat_ptracer45_mean       =   3.4252022118532E-14
(PID.TID 0000.0001) %MON trcstat_ptracer45_sd         =   2.9692134735459E-15
(PID.TID 0000.0001) %MON trcstat_ptracer45_del2       =   0.0000000000000E+00
(PID.TID 0000.0001) %MON trcstat_ptracer46_max        =   3.6590813307395E-14
(PID.TID 0000.0001) %MON trcstat_ptracer46_min        =   2.9701614662327E-14
(PID.TID 0000.0001) %MON trcstat_ptracer46_mean       =   3.3373571948182E-14
(PID.TID 0000.0001) %MON trcstat_ptracer46_sd         =   2.3995296633389E-15
(PID.TID 0000.0001) %MON trcstat_ptracer46_del2       =   0.0000000000000E+00
(PID.TID 0000.0001) %MON trcstat_ptracer47_max        =   3.5236854564396E-14
(PID.TID 0000.0001) %MON trcstat_ptracer47_min        =   2.9701615603901E-14
(PID.TID 0000.0001) %MON trcstat_ptracer47_mean       =   3.2643486207880E-14
(PID.TID 0000.0001) %MON trcstat_ptracer47_sd         =   1.9250700121112E-15
(PID.TID 0000.0001) %MON trcstat_ptracer47_del2       =   0.0000000000000E+00
(PID.TID 0000.0001) %MON trcstat_ptracer48_max        =   3.4113333531076E-14
(PID.TID 0000.0001) %MON trcstat_ptracer48_min        =   2.9701617062841E-14
(PID.TID 0000.0001) %MON trcstat_ptracer48_mean       =   3.2040953454821E-14
(PID.TID 0000.0001) %MON trcstat_ptracer48_sd         =   1.5326406117735E-15
(PID.TID 0000.0001) %MON trcstat_ptracer48_del2       =   0.0000000000000E+00
(PID.TID 0000.0001) %MON trcstat_ptracer49_max        =   3.3190275561335E-14
(PID.TID 0000.0001) %MON trcstat_ptracer49_min        =   2.9701618239626E-14
(PID.TID 0000.0001) %MON trcstat_ptracer49_mean       =   3.1547291553818E-14
(PID.TID 0000.0001) %MON trcstat_ptracer49_sd         =   1.2103242512894E-15
(PID.TID 0000.0001) %MON trcstat_ptracer49_del2       =   0.0000000000000E+00
(PID.TID 0000.0001) %MON trcstat_ptracer50_max        =   3.2439514073269E-14
(PID.TID 0000.0001) %MON trcstat_ptracer50_min        =   2.9701618575965E-14
(PID.TID 0000.0001) %MON trcstat_ptracer50_mean       =   3.1145912381929E-14
(PID.TID 0000.0001) %MON trcstat_ptracer50_sd         =   9.4747229378839E-16
(PID.TID 0000.0001) %MON trcstat_ptracer50_del2       =   0.0000000000000E+00
(PID.TID 0000.0001) %MON trcstat_ptracer51_max        =   3.1832309285993E-14
(PID.TID 0000.0001) %MON trcstat_ptracer51_min        =   2.9701617724334E-14
(PID.TID 0000.0001) %MON trcstat_ptracer51_mean       =   3.0822223578705E-14
(PID.TID 0000.0001) %MON trcstat_ptracer51_sd         =   7.3468194732665E-16
(PID.TID 0000.0001) %MON trcstat_ptracer51_del2       =   0.0000000000000E+00
(PID.TID 0000.0001) %MON trcstat_ptracer52_max        =   3.1344921436300E-14
(PID.TID 0000.0001) %MON trcstat_ptracer52_min        =   2.9701615527613E-14
(PID.TID 0000.0001) %MON trcstat_ptracer52_mean       =   3.0563466404231E-14
(PID.TID 0000.0001) %MON trcstat_ptracer52_sd         =   5.6372239164853E-16
(PID.TID 0000.0001) %MON trcstat_ptracer52_del2       =   0.0000000000000E+00
(PID.TID 0000.0001) %MON trcstat_ptracer53_max        =   2.9894866007248E-14
(PID.TID 0000.0001) %MON trcstat_ptracer53_min        =   2.9847657856187E-14
(PID.TID 0000.0001) %MON trcstat_ptracer53_mean       =   2.9888313606160E-14
(PID.TID 0000.0001) %MON trcstat_ptracer53_sd         =   1.2922196864233E-17
(PID.TID 0000.0001) %MON trcstat_ptracer53_del2       =   0.0000000000000E+00
(PID.TID 0000.0001) %MON trcstat_ptracer54_max        =   2.4265329059953E-09
(PID.TID 0000.0001) %MON trcstat_ptracer54_min        =   9.9004567825650E-10
(PID.TID 0000.0001) %MON trcstat_ptracer54_mean       =   1.0378697166998E-09
(PID.TID 0000.0001) %MON trcstat_ptracer54_sd         =   2.5362821118827E-10
(PID.TID 0000.0001) %MON trcstat_ptracer54_del2       =   0.0000000000000E+00
(PID.TID 0000.0001) %MON trcstat_ptracer55_max        =   2.4406276697228E-09
(PID.TID 0000.0001) %MON trcstat_ptracer55_min        =   9.9004567825650E-10
(PID.TID 0000.0001) %MON trcstat_ptracer55_mean       =   1.0371269721720E-09
(PID.TID 0000.0001) %MON trcstat_ptracer55_sd         =   2.4980363548673E-10
(PID.TID 0000.0001) %MON trcstat_ptracer55_del2       =   0.0000000000000E+00
(PID.TID 0000.0001) %MON trcstat_ptracer56_max        =   2.2065196681622E-09
(PID.TID 0000.0001) %MON trcstat_ptracer56_min        =   9.9004567825650E-10
(PID.TID 0000.0001) %MON trcstat_ptracer56_mean       =   1.0305791345844E-09
(PID.TID 0000.0001) %MON trcstat_ptracer56_sd         =   2.1494824123642E-10
(PID.TID 0000.0001) %MON trcstat_ptracer56_del2       =   0.0000000000000E+00
(PID.TID 0000.0001) %MON trcstat_ptracer57_max        =   2.1052878984877E-09
(PID.TID 0000.0001) %MON trcstat_ptracer57_min        =   9.9004567825650E-10
(PID.TID 0000.0001) %MON trcstat_ptracer57_mean       =   1.0268710821821E-09
(PID.TID 0000.0001) %MON trcstat_ptracer57_sd         =   1.9529998539587E-10
(PID.TID 0000.0001) %MON trcstat_ptracer57_del2       =   0.0000000000000E+00
(PID.TID 0000.0001) %MON trcstat_ptracer58_max        =   1.8826626677597E-09
(PID.TID 0000.0001) %MON trcstat_ptracer58_min        =   9.9004567825650E-10
(PID.TID 0000.0001) %MON trcstat_ptracer58_mean       =   1.0198060271564E-09
(PID.TID 0000.0001) %MON trcstat_ptracer58_sd         =   1.5779671853536E-10
(PID.TID 0000.0001) %MON trcstat_ptracer58_del2       =   0.0000000000000E+00
(PID.TID 0000.0001) %MON trcstat_ptracer59_max        =   1.6939300184693E-09
(PID.TID 0000.0001) %MON trcstat_ptracer59_min        =   9.9004567825650E-10
(PID.TID 0000.0001) %MON trcstat_ptracer59_mean       =   1.0138317816950E-09
(PID.TID 0000.0001) %MON trcstat_ptracer59_sd         =   1.2608366406356E-10
(PID.TID 0000.0001) %MON trcstat_ptracer59_del2       =   0.0000000000000E+00
(PID.TID 0000.0001) %MON trcstat_ptracer60_max        =   1.5363083509248E-09
(PID.TID 0000.0001) %MON trcstat_ptracer60_min        =   9.9004567825650E-10
(PID.TID 0000.0001) %MON trcstat_ptracer60_mean       =   1.0085332201970E-09
(PID.TID 0000.0001) %MON trcstat_ptracer60_sd         =   9.7974112788874E-11
(PID.TID 0000.0001) %MON trcstat_ptracer60_del2       =   0.0000000000000E+00
(PID.TID 0000.0001) %MON trcstat_ptracer61_max        =   1.4081804770655E-09
(PID.TID 0000.0001) %MON trcstat_ptracer61_min        =   9.9004567825650E-10
(PID.TID 0000.0001) %MON trcstat_ptracer61_mean       =   1.0042129657745E-09
(PID.TID 0000.0001) %MON trcstat_ptracer61_sd         =   7.5049373687143E-11
(PID.TID 0000.0001) %MON trcstat_ptracer61_del2       =   0.0000000000000E+00
(PID.TID 0000.0001) %MON trcstat_ptracer62_max        =   1.3055727710078E-09
(PID.TID 0000.0001) %MON trcstat_ptracer62_min        =   9.9004567825650E-10
(PID.TID 0000.0001) %MON trcstat_ptracer62_mean       =   1.0007464784962E-09
(PID.TID 0000.0001) %MON trcstat_ptracer62_sd         =   5.6647681923668E-11
(PID.TID 0000.0001) %MON trcstat_ptracer62_del2       =   0.0000000000000E+00
(PID.TID 0000.0001) %MON trcstat_ptracer63_max        =   1.2245579645027E-09
(PID.TID 0000.0001) %MON trcstat_ptracer63_min        =   9.9004567825650E-10
(PID.TID 0000.0001) %MON trcstat_ptracer63_mean       =   9.9806266672000E-10
(PID.TID 0000.0001) %MON trcstat_ptracer63_sd         =   4.2388613021676E-11
(PID.TID 0000.0001) %MON trcstat_ptracer63_del2       =   0.0000000000000E+00
(PID.TID 0000.0001) %MON trcstat_ptracer64_max        =   1.1607839918460E-09
(PID.TID 0000.0001) %MON trcstat_ptracer64_min        =   9.9004567825650E-10
(PID.TID 0000.0001) %MON trcstat_ptracer64_mean       =   9.9588532964972E-10
(PID.TID 0000.0001) %MON trcstat_ptracer64_sd         =   3.0809908480076E-11
(PID.TID 0000.0001) %MON trcstat_ptracer64_del2       =   0.0000000000000E+00
(PID.TID 0000.0001) %MON trcstat_ptracer65_max        =   1.1111745218788E-09
(PID.TID 0000.0001) %MON trcstat_ptracer65_min        =   9.9004567825650E-10
(PID.TID 0000.0001) %MON trcstat_ptracer65_mean       =   9.9419087617635E-10
(PID.TID 0000.0001) %MON trcstat_ptracer65_sd         =   2.1781781191716E-11
(PID.TID 0000.0001) %MON trcstat_ptracer65_del2       =   0.0000000000000E+00
(PID.TID 0000.0001) %MON trcstat_ptracer66_max        =   1.0728915919151E-09
(PID.TID 0000.0001) %MON trcstat_ptracer66_min        =   9.9004567825650E-10
(PID.TID 0000.0001) %MON trcstat_ptracer66_mean       =   9.9288287394241E-10
(PID.TID 0000.0001) %MON trcstat_ptracer66_sd         =   1.4790346585973E-11
(PID.TID 0000.0001) %MON trcstat_ptracer66_del2       =   0.0000000000000E+00
(PID.TID 0000.0001) %MON trcstat_ptracer67_max        =   1.0436116247930E-09
(PID.TID 0000.0001) %MON trcstat_ptracer67_min        =   9.9004567825650E-10
(PID.TID 0000.0001) %MON trcstat_ptracer67_mean       =   9.9188226430576E-10
(PID.TID 0000.0001) %MON trcstat_ptracer67_sd         =   9.4142634665899E-12
(PID.TID 0000.0001) %MON trcstat_ptracer67_del2       =   0.0000000000000E+00
(PID.TID 0000.0001) %MON trcstat_ptracer68_max        =   1.0214618322677E-09
(PID.TID 0000.0001) %MON trcstat_ptracer68_min        =   9.9004567825650E-10
(PID.TID 0000.0001) %MON trcstat_ptracer68_mean       =   9.9112526717856E-10
(PID.TID 0000.0001) %MON trcstat_ptracer68_sd         =   5.3177344583983E-12
(PID.TID 0000.0001) %MON trcstat_ptracer68_del2       =   0.0000000000000E+00
(PID.TID 0000.0001) %MON trcstat_ptracer69_max        =   5.8122694840353E-10
(PID.TID 0000.0001) %MON trcstat_ptracer69_min        =   5.7021956259027E-10
(PID.TID 0000.0001) %MON trcstat_ptracer69_mean       =   5.7864364913753E-10
(PID.TID 0000.0001) %MON trcstat_ptracer69_sd         =   2.9608853979277E-12
(PID.TID 0000.0001) %MON trcstat_ptracer69_del2       =   0.0000000000000E+00
(PID.TID 0000.0001) %MON trcstat_ptracer70_max        =   3.9877173219476E-10
(PID.TID 0000.0001) %MON trcstat_ptracer70_min        =   3.4873095601665E-10
(PID.TID 0000.0001) %MON trcstat_ptracer70_mean       =   3.9640042398890E-10
(PID.TID 0000.0001) %MON trcstat_ptracer70_sd         =   2.8670387206188E-12
(PID.TID 0000.0001) %MON trcstat_ptracer70_del2       =   0.0000000000000E+00
(PID.TID 0000.0001) %MON trcstat_ptracer71_max        =   2.7128849289102E-01
(PID.TID 0000.0001) %MON trcstat_ptracer71_min        =   5.5445411068607E-11
(PID.TID 0000.0001) %MON trcstat_ptracer71_mean       =   3.2909409071139E-02
(PID.TID 0000.0001) %MON trcstat_ptracer71_sd         =   8.3273876171840E-02
(PID.TID 0000.0001) %MON trcstat_ptracer71_del2       =   0.0000000000000E+00
(PID.TID 0000.0001) %MON trcstat_ptracer72_max        =   3.0099844322322E-02
(PID.TID 0000.0001) %MON trcstat_ptracer72_min        =   7.1300850518909E-07
(PID.TID 0000.0001) %MON trcstat_ptracer72_mean       =   1.4828849791657E-02
(PID.TID 0000.0001) %MON trcstat_ptracer72_sd         =   1.1009002873614E-02
(PID.TID 0000.0001) %MON trcstat_ptracer72_del2       =   0.0000000000000E+00
(PID.TID 0000.0001) %MON trcstat_ptracer73_max        =   1.6955531190738E-05
(PID.TID 0000.0001) %MON trcstat_ptracer73_min        =   2.7358224461246E-15
(PID.TID 0000.0001) %MON trcstat_ptracer73_mean       =   2.0568380652284E-06
(PID.TID 0000.0001) %MON trcstat_ptracer73_sd         =   5.2046172563209E-06
(PID.TID 0000.0001) %MON trcstat_ptracer73_del2       =   0.0000000000000E+00
(PID.TID 0000.0001) %MON trcstat_ptracer74_max        =   1.8812403424847E-06
(PID.TID 0000.0001) %MON trcstat_ptracer74_min        =   4.4562705531802E-11
(PID.TID 0000.0001) %MON trcstat_ptracer74_mean       =   9.2680311967128E-07
(PID.TID 0000.0001) %MON trcstat_ptracer74_sd         =   6.8806270480474E-07
(PID.TID 0000.0001) %MON trcstat_ptracer74_del2       =   0.0000000000000E+00
(PID.TID 0000.0001) // =======================================================
(PID.TID 0000.0001) // End MONITOR ptracers field statistics
(PID.TID 0000.0001) // =======================================================
(PID.TID 0000.0001) %CHECKPOINT         4 ckptA
(PID.TID 0000.0001)   Seconds in section "ALL                    [THE_MODEL_MAIN]":
(PID.TID 0000.0001)           User time:   1.3600000000000001
(PID.TID 0000.0001)         System time:  4.00000000000000008E-002
(PID.TID 0000.0001)     Wall clock time:   1.3957309722900391
(PID.TID 0000.0001)          No. starts:           1
(PID.TID 0000.0001)           No. stops:           1
(PID.TID 0000.0001)   Seconds in section "INITIALISE_FIXED       [THE_MODEL_MAIN]":
(PID.TID 0000.0001)           User time:  0.98999999999999999
(PID.TID 0000.0001)         System time:  2.99999999999999989E-002
(PID.TID 0000.0001)     Wall clock time:   1.0184440612792969
(PID.TID 0000.0001)          No. starts:           1
(PID.TID 0000.0001)           No. stops:           1
(PID.TID 0000.0001)   Seconds in section "THE_MAIN_LOOP          [THE_MODEL_MAIN]":
(PID.TID 0000.0001)           User time:  0.37000000000000011
(PID.TID 0000.0001)         System time:  1.00000000000000019E-002
(PID.TID 0000.0001)     Wall clock time:  0.37427806854248047
(PID.TID 0000.0001)          No. starts:           1
(PID.TID 0000.0001)           No. stops:           1
(PID.TID 0000.0001)   Seconds in section "INITIALISE_VARIA    [THE_MAIN_LOOP]":
(PID.TID 0000.0001)           User time:  5.00000000000000444E-002
(PID.TID 0000.0001)         System time:  1.00000000000000019E-002
(PID.TID 0000.0001)     Wall clock time:  5.89051246643066406E-002
(PID.TID 0000.0001)          No. starts:           1
(PID.TID 0000.0001)           No. stops:           1
(PID.TID 0000.0001)   Seconds in section "MAIN LOOP           [THE_MAIN_LOOP]":
(PID.TID 0000.0001)           User time:  0.32000000000000006
(PID.TID 0000.0001)         System time:   0.0000000000000000
(PID.TID 0000.0001)     Wall clock time:  0.31534099578857422
(PID.TID 0000.0001)          No. starts:           1
(PID.TID 0000.0001)           No. stops:           1
(PID.TID 0000.0001)   Seconds in section "FORWARD_STEP        [THE_MAIN_LOOP]":
(PID.TID 0000.0001)           User time:  0.32000000000000006
(PID.TID 0000.0001)         System time:   0.0000000000000000
(PID.TID 0000.0001)     Wall clock time:  0.31528735160827637
(PID.TID 0000.0001)          No. starts:           4
(PID.TID 0000.0001)           No. stops:           4
(PID.TID 0000.0001)   Seconds in section "LOAD_FIELDS_DRIVER  [FORWARD_STEP]":
(PID.TID 0000.0001)           User time:   0.0000000000000000
(PID.TID 0000.0001)         System time:   0.0000000000000000
(PID.TID 0000.0001)     Wall clock time:  6.36816024780273438E-004
(PID.TID 0000.0001)          No. starts:           4
(PID.TID 0000.0001)           No. stops:           4
(PID.TID 0000.0001)   Seconds in section "EXTERNAL_FLDS_LOAD [LOAD_FLDS_DRIVER]":
(PID.TID 0000.0001)           User time:   0.0000000000000000
(PID.TID 0000.0001)         System time:   0.0000000000000000
(PID.TID 0000.0001)     Wall clock time:  3.39031219482421875E-004
(PID.TID 0000.0001)          No. starts:           4
(PID.TID 0000.0001)           No. stops:           4
(PID.TID 0000.0001)   Seconds in section "DO_ATMOSPHERIC_PHYS [FORWARD_STEP]":
(PID.TID 0000.0001)           User time:   0.0000000000000000
(PID.TID 0000.0001)         System time:   0.0000000000000000
(PID.TID 0000.0001)     Wall clock time:  4.29153442382812500E-005
(PID.TID 0000.0001)          No. starts:           4
(PID.TID 0000.0001)           No. stops:           4
(PID.TID 0000.0001)   Seconds in section "DO_OCEANIC_PHYS     [FORWARD_STEP]":
(PID.TID 0000.0001)           User time:   0.0000000000000000
(PID.TID 0000.0001)         System time:   0.0000000000000000
(PID.TID 0000.0001)     Wall clock time:  6.16288185119628906E-003
(PID.TID 0000.0001)          No. starts:           4
(PID.TID 0000.0001)           No. stops:           4
(PID.TID 0000.0001)   Seconds in section "KPP_CALC [DO_OCEANIC_PHYS]":
(PID.TID 0000.0001)           User time:   0.0000000000000000
(PID.TID 0000.0001)         System time:   0.0000000000000000
(PID.TID 0000.0001)     Wall clock time:  5.32388687133789063E-003
(PID.TID 0000.0001)          No. starts:           4
(PID.TID 0000.0001)           No. stops:           4
(PID.TID 0000.0001)   Seconds in section "GCHEM_CALC_TENDENCY [FORWARD_STEP]":
(PID.TID 0000.0001)           User time:   0.0000000000000000
(PID.TID 0000.0001)         System time:   0.0000000000000000
(PID.TID 0000.0001)     Wall clock time:  3.98159027099609375E-005
(PID.TID 0000.0001)          No. starts:           4
(PID.TID 0000.0001)           No. stops:           4
(PID.TID 0000.0001)   Seconds in section "THERMODYNAMICS      [FORWARD_STEP]":
(PID.TID 0000.0001)           User time:  0.19999999999999996
(PID.TID 0000.0001)         System time:   0.0000000000000000
(PID.TID 0000.0001)     Wall clock time:  0.19948768615722656
(PID.TID 0000.0001)          No. starts:           4
(PID.TID 0000.0001)           No. stops:           4
(PID.TID 0000.0001)   Seconds in section "TRC_CORRECTION_STEP [FORWARD_STEP]":
(PID.TID 0000.0001)           User time:   0.0000000000000000
(PID.TID 0000.0001)         System time:   0.0000000000000000
(PID.TID 0000.0001)     Wall clock time:  3.25989723205566406E-003
(PID.TID 0000.0001)          No. starts:           4
(PID.TID 0000.0001)           No. stops:           4
(PID.TID 0000.0001)   Seconds in section "GCHEM_FORCING_SEP  [FORWARD_STEP]":
(PID.TID 0000.0001)           User time:  3.00000000000000266E-002
(PID.TID 0000.0001)         System time:   0.0000000000000000
(PID.TID 0000.0001)     Wall clock time:  2.59258747100830078E-002
(PID.TID 0000.0001)          No. starts:           4
(PID.TID 0000.0001)           No. stops:           4
(PID.TID 0000.0001)   Seconds in section "BLOCKING_EXCHANGES  [FORWARD_STEP]":
(PID.TID 0000.0001)           User time:  1.00000000000000089E-002
(PID.TID 0000.0001)         System time:   0.0000000000000000
(PID.TID 0000.0001)     Wall clock time:  1.21781826019287109E-002
(PID.TID 0000.0001)          No. starts:           4
(PID.TID 0000.0001)           No. stops:           4
(PID.TID 0000.0001)   Seconds in section "DO_STATEVARS_TAVE   [FORWARD_STEP]":
(PID.TID 0000.0001)           User time:   0.0000000000000000
(PID.TID 0000.0001)         System time:   0.0000000000000000
(PID.TID 0000.0001)     Wall clock time:  9.21726226806640625E-004
(PID.TID 0000.0001)          No. starts:           4
(PID.TID 0000.0001)           No. stops:           4
(PID.TID 0000.0001)   Seconds in section "MONITOR             [FORWARD_STEP]":
(PID.TID 0000.0001)           User time:   0.0000000000000000
(PID.TID 0000.0001)         System time:   0.0000000000000000
(PID.TID 0000.0001)     Wall clock time:  3.48448753356933594E-003
(PID.TID 0000.0001)          No. starts:           4
(PID.TID 0000.0001)           No. stops:           4
(PID.TID 0000.0001)   Seconds in section "DO_THE_MODEL_IO     [FORWARD_STEP]":
(PID.TID 0000.0001)           User time:  7.00000000000000622E-002
(PID.TID 0000.0001)         System time:   0.0000000000000000
(PID.TID 0000.0001)     Wall clock time:  5.93976974487304688E-002
(PID.TID 0000.0001)          No. starts:           4
(PID.TID 0000.0001)           No. stops:           4
(PID.TID 0000.0001)   Seconds in section "DO_WRITE_PICKUP     [FORWARD_STEP]":
(PID.TID 0000.0001)           User time:  1.00000000000000089E-002
(PID.TID 0000.0001)         System time:   0.0000000000000000
(PID.TID 0000.0001)     Wall clock time:  3.17525863647460938E-003
(PID.TID 0000.0001)          No. starts:           4
(PID.TID 0000.0001)           No. stops:           4
(PID.TID 0000.0001) // ======================================================
(PID.TID 0000.0001) // Tile <-> Tile communication statistics
(PID.TID 0000.0001) // ======================================================
(PID.TID 0000.0001) // o Tile number: 000001
(PID.TID 0000.0001) //         No. X exchanges =              0
(PID.TID 0000.0001) //            Max. X spins =              0
(PID.TID 0000.0001) //            Min. X spins =     1000000000
(PID.TID 0000.0001) //          Total. X spins =              0
(PID.TID 0000.0001) //            Avg. X spins =       0.00E+00
(PID.TID 0000.0001) //         No. Y exchanges =              0
(PID.TID 0000.0001) //            Max. Y spins =              0
(PID.TID 0000.0001) //            Min. Y spins =     1000000000
(PID.TID 0000.0001) //          Total. Y spins =              0
(PID.TID 0000.0001) //            Avg. Y spins =       0.00E+00
(PID.TID 0000.0001) // o Thread number: 000001
(PID.TID 0000.0001) //            No. barriers =          16666
(PID.TID 0000.0001) //      Max. barrier spins =              1
(PID.TID 0000.0001) //      Min. barrier spins =              1
(PID.TID 0000.0001) //     Total barrier spins =          16666
(PID.TID 0000.0001) //      Avg. barrier spins =       1.00E+00
PROGRAM MAIN: Execution ended Normally
