(PID.TID 0000.0001) 
(PID.TID 0000.0001) // ======================================================
(PID.TID 0000.0001) //                      MITgcm UV
(PID.TID 0000.0001) //                      =========
(PID.TID 0000.0001) // ======================================================
(PID.TID 0000.0001) // execution environment starting up...
(PID.TID 0000.0001) 
(PID.TID 0000.0001) // Build user:        jahn
(PID.TID 0000.0001) // Build host:        saramago.mit.edu
(PID.TID 0000.0001) // Build date:        Thu Nov 14 15:21:06 EST 2013
(PID.TID 0000.0001) 
(PID.TID 0000.0001) // =======================================================
(PID.TID 0000.0001) // Execution Environment parameter file "eedata"
(PID.TID 0000.0001) // =======================================================
(PID.TID 0000.0001) ># Example "eedata" file
(PID.TID 0000.0001) ># Lines beginning "#" are comments
(PID.TID 0000.0001) ># nTx - No. threads per process in X
(PID.TID 0000.0001) ># nTy - No. threads per process in Y
(PID.TID 0000.0001) > &EEPARMS
(PID.TID 0000.0001) > nTx=1,nTy=1
(PID.TID 0000.0001) > /
(PID.TID 0000.0001) ># Note: Some systems use & as the
(PID.TID 0000.0001) ># namelist terminator. Other systems
(PID.TID 0000.0001) ># use a / character (as shown here).
(PID.TID 0000.0001) 
(PID.TID 0000.0001) // =======================================================
(PID.TID 0000.0001) // Computational Grid Specification ( see files "SIZE.h" )
(PID.TID 0000.0001) //                                  ( and "eedata"       )
(PID.TID 0000.0001) // =======================================================
(PID.TID 0000.0001)      nPx =    1 ; /* No. processes in X */
(PID.TID 0000.0001)      nPy =    1 ; /* No. processes in Y */
(PID.TID 0000.0001)      nSx =    2 ; /* No. tiles in X per process */
(PID.TID 0000.0001)      nSy =    1 ; /* No. tiles in Y per process */
(PID.TID 0000.0001)      sNx =   64 ; /* Tile size in X */
(PID.TID 0000.0001)      sNy =   64 ; /* Tile size in Y */
(PID.TID 0000.0001)      OLx =    4 ; /* Tile overlap distance in X */
(PID.TID 0000.0001)      OLy =    4 ; /* Tile overlap distance in Y */
(PID.TID 0000.0001)      nTx =    1 ; /* No. threads in X per process */
(PID.TID 0000.0001)      nTy =    1 ; /* No. threads in Y per process */
(PID.TID 0000.0001)       Nr =   15 ; /* No. levels in the vertical   */
(PID.TID 0000.0001)       Nx =  128 ; /* Total domain size in X ( = nPx*nSx*sNx ) */
(PID.TID 0000.0001)       Ny =   64 ; /* Total domain size in Y ( = nPy*nSy*sNy ) */
(PID.TID 0000.0001)   nTiles =    2 ; /* Total no. tiles per process ( = nSx*nSy ) */
(PID.TID 0000.0001)   nProcs =    1 ; /* Total no. processes ( = nPx*nPy ) */
(PID.TID 0000.0001) nThreads =    1 ; /* Total no. threads per process ( = nTx*nTy ) */
(PID.TID 0000.0001) usingMPI =    F ; /* Flag used to control whether MPI is in use */
(PID.TID 0000.0001)                   /*  note: To execute a program with MPI calls */
(PID.TID 0000.0001)                   /*  it must be launched appropriately e.g     */
(PID.TID 0000.0001)                   /*  "mpirun -np 64 ......"                    */
(PID.TID 0000.0001) useCoupler=    F ;/* Flag used to control communications with   */
(PID.TID 0000.0001)                   /*  other model components, through a coupler */
(PID.TID 0000.0001) debugMode =    F ; /* print debug msg. (sequence of S/R calls)  */
(PID.TID 0000.0001) printMapIncludesZeros=    F ; /* print zeros in Std.Output maps */
(PID.TID 0000.0001) maxLengthPrt1D=   65 /* maxLength of 1D array printed to StdOut */
(PID.TID 0000.0001) 
(PID.TID 0000.0001) // ======================================================
(PID.TID 0000.0001) // Mapping of tiles to threads
(PID.TID 0000.0001) // ======================================================
(PID.TID 0000.0001) // -o- Thread   1, tiles (   1:   2,   1:   1)
(PID.TID 0000.0001) 
(PID.TID 0000.0001) // ======================================================
(PID.TID 0000.0001) // Tile <-> Tile connectvity table
(PID.TID 0000.0001) // ======================================================
(PID.TID 0000.0001) // Tile number: 000001 (process no. = 000001)
(PID.TID 0000.0001) //        WEST: Tile = 000002, Process = 000001, Comm = put
(PID.TID 0000.0001) //                bi = 000002, bj = 000001
(PID.TID 0000.0001) //        EAST: Tile = 000002, Process = 000001, Comm = put
(PID.TID 0000.0001) //                bi = 000002, bj = 000001
(PID.TID 0000.0001) //       SOUTH: Tile = 000001, Process = 000001, Comm = put
(PID.TID 0000.0001) //                bi = 000001, bj = 000001
(PID.TID 0000.0001) //       NORTH: Tile = 000001, Process = 000001, Comm = put
(PID.TID 0000.0001) //                bi = 000001, bj = 000001
(PID.TID 0000.0001) // Tile number: 000002 (process no. = 000001)
(PID.TID 0000.0001) //        WEST: Tile = 000001, Process = 000001, Comm = put
(PID.TID 0000.0001) //                bi = 000001, bj = 000001
(PID.TID 0000.0001) //        EAST: Tile = 000001, Process = 000001, Comm = put
(PID.TID 0000.0001) //                bi = 000001, bj = 000001
(PID.TID 0000.0001) //       SOUTH: Tile = 000002, Process = 000001, Comm = put
(PID.TID 0000.0001) //                bi = 000002, bj = 000001
(PID.TID 0000.0001) //       NORTH: Tile = 000002, Process = 000001, Comm = put
(PID.TID 0000.0001) //                bi = 000002, bj = 000001
(PID.TID 0000.0001) 
(PID.TID 0000.0001)  INI_PARMS: opening model parameter file "data"
(PID.TID 0000.0001)  OPEN_COPY_DATA_FILE: opening file data
(PID.TID 0000.0001) // =======================================================
(PID.TID 0000.0001) // Parameter file "data"
(PID.TID 0000.0001) // =======================================================
(PID.TID 0000.0001) ># ====================
(PID.TID 0000.0001) ># | Model parameters |
(PID.TID 0000.0001) ># ====================
(PID.TID 0000.0001) >#
(PID.TID 0000.0001) ># Continuous equation parameters
(PID.TID 0000.0001) > &PARM01
(PID.TID 0000.0001) > tRef=15*20.,
(PID.TID 0000.0001) > sRef=15*35.,
(PID.TID 0000.0001) > viscA4=0.,
(PID.TID 0000.0001) > viscAh=5.E5,
(PID.TID 0000.0001) > diffKhT=0.E3,
(PID.TID 0000.0001) > diffKhS=0.E3,
(PID.TID 0000.0001) > viscAz=1.E-3,
(PID.TID 0000.0001) > diffKzT=5.E-5,
(PID.TID 0000.0001) > diffKzS=5.E-5,
(PID.TID 0000.0001) > beta=1.E-11,
(PID.TID 0000.0001) > f0=1.e-4,
(PID.TID 0000.0001) > tAlpha=2.E-4,
(PID.TID 0000.0001) > sBeta =7.4E-4,
(PID.TID 0000.0001) > gravity=9.81,
(PID.TID 0000.0001) > gBaro=9.81,
(PID.TID 0000.0001) > rhonil=1035.,
(PID.TID 0000.0001) > rigidLid=.FALSE.,
(PID.TID 0000.0001) > implicitFreeSurface=.TRUE.,
(PID.TID 0000.0001) > eosType='POLY3',
(PID.TID 0000.0001) > implicitDiffusion=.TRUE.,
(PID.TID 0000.0001) > implicitViscosity=.TRUE.,
(PID.TID 0000.0001) > ivdc_kappa=100.,
(PID.TID 0000.0001) > tempAdvScheme       = 2
(PID.TID 0000.0001) > saltAdvScheme       = 2
(PID.TID 0000.0001) > tempStepping        = .TRUE.
(PID.TID 0000.0001) > saltStepping        = .TRUE.
(PID.TID 0000.0001) > multiDimAdvection   = .FALSE.
(PID.TID 0000.0001) > allowFreezing=.TRUE.,
(PID.TID 0000.0001) > useCDscheme=.TRUE.,
(PID.TID 0000.0001) >#usePickupBeforeC54=.TRUE.,
(PID.TID 0000.0001) > /
(PID.TID 0000.0001) >
(PID.TID 0000.0001) ># Elliptic solver parameters
(PID.TID 0000.0001) > &PARM02
(PID.TID 0000.0001) > cg2dMaxIters=1000,
(PID.TID 0000.0001) > cg2dTargetResidual=1.E-13,
(PID.TID 0000.0001) > /
(PID.TID 0000.0001) >
(PID.TID 0000.0001) ># Time stepping parameters
(PID.TID 0000.0001) > &PARM03
(PID.TID 0000.0001) > nIter0=5644800,
(PID.TID 0000.0001) > nTimeSteps = 4,
(PID.TID 0000.0001) >#nTimeSteps = 7200,
(PID.TID 0000.0001) > deltaTmom = 900.0,
(PID.TID 0000.0001) > tauCD =     321428.,
(PID.TID 0000.0001) > deltaTtracer= 43200.0,
(PID.TID 0000.0001) > deltaTClock = 43200.0,
(PID.TID 0000.0001) > abEps = 0.1,
(PID.TID 0000.0001) > pickupStrictlyMatch=.FALSE.,
(PID.TID 0000.0001) > pChkptFreq=311040000.,
(PID.TID 0000.0001) > chkptFreq= 311040000.,
(PID.TID 0000.0001) > dumpFreq=  31104000.,
(PID.TID 0000.0001) > taveFreq=  2592000.,
(PID.TID 0000.0001) >#taveFreq=  31104000.,
(PID.TID 0000.0001) >#monitorFreq= 31104000.,
(PID.TID 0000.0001) > monitorFreq= 43200.0,
(PID.TID 0000.0001) >#monitorFreq= 2592000.,
(PID.TID 0000.0001) > tauThetaClimRelax = 5184000.0,
(PID.TID 0000.0001) > tauSaltClimRelax =  7776000.0,
(PID.TID 0000.0001) > periodicExternalForcing=.TRUE.,
(PID.TID 0000.0001) > externForcingPeriod=2592000.,
(PID.TID 0000.0001) > externForcingCycle=31104000.,
(PID.TID 0000.0001) > /
(PID.TID 0000.0001) >
(PID.TID 0000.0001) ># Gridding parameters
(PID.TID 0000.0001) > &PARM04
(PID.TID 0000.0001) > usingCartesianGrid=.FALSE.,
(PID.TID 0000.0001) > usingSphericalPolarGrid=.TRUE.,
(PID.TID 0000.0001) > delZ= 50., 70., 100., 140., 190.,
(PID.TID 0000.0001) >       240., 290., 340., 390., 440.,
(PID.TID 0000.0001) >       490., 540., 590., 640., 690.,
(PID.TID 0000.0001) > ygOrigin=-90.,
(PID.TID 0000.0001) > delX=128*2.8125,
(PID.TID 0000.0001) > delY=64*2.8125,
(PID.TID 0000.0001) > /
(PID.TID 0000.0001) >
(PID.TID 0000.0001) ># Input datasets
(PID.TID 0000.0001) > &PARM05
(PID.TID 0000.0001) > bathyFile=      '../input/input_ocmip/depth_g77.bin',
(PID.TID 0000.0001) > hydrogThetaFile='../input/input_ocmip/lev_clim_temp.bin',
(PID.TID 0000.0001) > hydrogSaltFile= '../input/input_ocmip/lev_clim_salt.bin',
(PID.TID 0000.0001) > zonalWindFile=  '../input/input_ocmip/tren_taux.bin',
(PID.TID 0000.0001) > meridWindFile=  '../input/input_ocmip/tren_tauy.bin',
(PID.TID 0000.0001) > thetaClimFile=  '../input/input_ocmip/lev_monthly_temp.bin',
(PID.TID 0000.0001) > saltClimFile=   '../input/input_ocmip/lev_monthly_salt.bin',
(PID.TID 0000.0001) > surfQFile=      '../input/input_ocmip/shi_qnet.bin',
(PID.TID 0000.0001) > EmPmRFile=      '../input/input_ocmip/shi_empmr_year.bin',
(PID.TID 0000.0001) > the_run_name=   'Darwin12',
(PID.TID 0000.0001) > /
(PID.TID 0000.0001) 
(PID.TID 0000.0001)  INI_PARMS ; starts to read PARM01
(PID.TID 0000.0001)  INI_PARMS ; read PARM01 : OK
(PID.TID 0000.0001)  INI_PARMS ; starts to read PARM02
(PID.TID 0000.0001)  INI_PARMS ; read PARM02 : OK
(PID.TID 0000.0001)  INI_PARMS ; starts to read PARM03
(PID.TID 0000.0001)  INI_PARMS ; read PARM03 : OK
(PID.TID 0000.0001)  INI_PARMS ; starts to read PARM04
(PID.TID 0000.0001)  INI_PARMS ; read PARM04 : OK
(PID.TID 0000.0001)  INI_PARMS ; starts to read PARM05
(PID.TID 0000.0001)  INI_PARMS ; read PARM05 : OK
(PID.TID 0000.0001)  INI_PARMS: finished reading file "data"
(PID.TID 0000.0001)  PACKAGES_BOOT: opening data.pkg
(PID.TID 0000.0001)  OPEN_COPY_DATA_FILE: opening file data.pkg
(PID.TID 0000.0001) // =======================================================
(PID.TID 0000.0001) // Parameter file "data.pkg"
(PID.TID 0000.0001) // =======================================================
(PID.TID 0000.0001) ># Packages
(PID.TID 0000.0001) > &PACKAGES
(PID.TID 0000.0001) > useGMRedi=.TRUE.
(PID.TID 0000.0001) > usePTRACERS=.TRUE.
(PID.TID 0000.0001) > useGCHEM=.TRUE.,
(PID.TID 0000.0001) > useMNC=.TRUE.,
(PID.TID 0000.0001) > /
(PID.TID 0000.0001) 
(PID.TID 0000.0001)  PACKAGES_BOOT: finished reading data.pkg
(PID.TID 0000.0001)  MNC_READPARMS: opening file 'data.mnc'
(PID.TID 0000.0001)  OPEN_COPY_DATA_FILE: opening file data.mnc
(PID.TID 0000.0001) // =======================================================
(PID.TID 0000.0001) // Parameter file "data.mnc"
(PID.TID 0000.0001) // =======================================================
(PID.TID 0000.0001) ># Example "data.mnc" file
(PID.TID 0000.0001) ># Lines beginning "#" are comments
(PID.TID 0000.0001) > &MNC_01
(PID.TID 0000.0001) ># mnc_echo_gvtypes=.FALSE.,
(PID.TID 0000.0001) ># mnc_use_indir=.FALSE.,
(PID.TID 0000.0001) > mnc_use_outdir=.TRUE.,
(PID.TID 0000.0001) > mnc_outdir_str='ocmip_darwin_',
(PID.TID 0000.0001) > mnc_outdir_date=.TRUE.,
(PID.TID 0000.0001) > monitor_mnc=.FALSE.,
(PID.TID 0000.0001) > snapshot_mnc=.TRUE.,
(PID.TID 0000.0001) > timeave_mnc=.TRUE.,
(PID.TID 0000.0001) > pickup_read_mnc=.FALSE.,
(PID.TID 0000.0001) > pickup_write_mnc=.FALSE.,
(PID.TID 0000.0001) > /
(PID.TID 0000.0001) ># Note: Some systems use & as the
(PID.TID 0000.0001) ># namelist terminator. Other systems
(PID.TID 0000.0001) ># use a / character.
(PID.TID 0000.0001) 
(PID.TID 0000.0001)  MNC_READPARMS: finished reading data.mnc
(PID.TID 0000.0001)  GM_READPARMS: opening data.gmredi
(PID.TID 0000.0001)  OPEN_COPY_DATA_FILE: opening file data.gmredi
(PID.TID 0000.0001) // =======================================================
(PID.TID 0000.0001) // Parameter file "data.gmredi"
(PID.TID 0000.0001) // =======================================================
(PID.TID 0000.0001) ># GM+Redi package parameters:
(PID.TID 0000.0001) >#     GM_Small_Number  :: epsilon used in computing the slope
(PID.TID 0000.0001) >#     GM_slopeSqCutoff :: slope^2 cut-off value
(PID.TID 0000.0001) >
(PID.TID 0000.0001) >#-from MOM :
(PID.TID 0000.0001) ># GM_background_K:      G & Mc.W  diffusion coefficient
(PID.TID 0000.0001) ># GM_maxSlope    :      max slope of isopycnals
(PID.TID 0000.0001) ># GM_Scrit       :      transition for scaling diffusion coefficient
(PID.TID 0000.0001) ># GM_Sd          :      half width scaling for diffusion coefficient
(PID.TID 0000.0001) ># GM_taper_scheme:      slope clipping or one of the tapering schemes
(PID.TID 0000.0001) ># GM_Kmin_horiz  :      horizontal diffusion minimum value
(PID.TID 0000.0001) >
(PID.TID 0000.0001) >#-Option parameters (needs to "define" options in GMREDI_OPTIONS.h")
(PID.TID 0000.0001) ># GM_isopycK     :      isopycnal diffusion coefficient
(PID.TID 0000.0001) >(default=GM_background_K)
(PID.TID 0000.0001) ># GM_AdvForm     :      turn on GM Advective form       (default=Skew flux
(PID.TID 0000.0001) >form)
(PID.TID 0000.0001) >
(PID.TID 0000.0001) > &GM_PARM01
(PID.TID 0000.0001) >  GM_Small_Number    = 1.D-20,
(PID.TID 0000.0001) >  GM_slopeSqCutoff   = 1.D+08,
(PID.TID 0000.0001) >  GM_AdvForm         = .FALSE.,
(PID.TID 0000.0001) >  GM_isopycK         = 1.D+3,
(PID.TID 0000.0001) >  GM_background_K    = 1.D+3,
(PID.TID 0000.0001) >  GM_maxSlope        = 1.D-2,
(PID.TID 0000.0001) >  GM_taper_scheme    = 'dm95',
(PID.TID 0000.0001) >  GM_Kmin_horiz      = 50.,
(PID.TID 0000.0001) >  GM_Scrit           = 4.D-3,
(PID.TID 0000.0001) >  GM_Sd              = 1.D-3,
(PID.TID 0000.0001) >#
(PID.TID 0000.0001) >###  GM_Visbeck_alpha   = 1.5D-2,
(PID.TID 0000.0001) >###  GM_Visbeck_alpha   = 0.D0,
(PID.TID 0000.0001) >###  GM_Visbeck_length  = 2.D+5,
(PID.TID 0000.0001) >###  GM_Visbeck_depth   = 1.D+3,
(PID.TID 0000.0001) >###  GM_Visbeck_maxval_K= 2.5D+3,
(PID.TID 0000.0001) > /
(PID.TID 0000.0001) >
(PID.TID 0000.0001) 
(PID.TID 0000.0001)  GM_READPARMS: finished reading data.gmredi
(PID.TID 0000.0001)  PTRACERS_READPARMS: opening data.ptracers
(PID.TID 0000.0001)  OPEN_COPY_DATA_FILE: opening file data.ptracers
(PID.TID 0000.0001) // =======================================================
(PID.TID 0000.0001) // Parameter file "data.ptracers"
(PID.TID 0000.0001) // =======================================================
(PID.TID 0000.0001) > &PTRACERS_PARM01
(PID.TID 0000.0001) > PTRACERS_numInUse=99,
(PID.TID 0000.0001) > PTRACERS_Iter0= 5644800,
(PID.TID 0000.0001) ># tracer 1 - phosphate
(PID.TID 0000.0001) > PTRACERS_names(1)='PO4',
(PID.TID 0000.0001) > PTRACERS_units(1)='mmol P/m^3',
(PID.TID 0000.0001) > PTRACERS_advScheme(1)=33,
(PID.TID 0000.0001) > PTRACERS_diffKh(1)=0.E3,
(PID.TID 0000.0001) > PTRACERS_diffKr(1)=1.E-5,
(PID.TID 0000.0001) > PTRACERS_useGMRedi(1)=.TRUE. ,
(PID.TID 0000.0001) > PTRACERS_useKPP(1)=.FALSE.,
(PID.TID 0000.0001) > PTRACERS_initialFile(1)='../input/input_ocmip/po4_uM.bin',
(PID.TID 0000.0001) ># tracer 2 - nitrate
(PID.TID 0000.0001) > PTRACERS_names(2)='NO3',
(PID.TID 0000.0001) > PTRACERS_units(2)='mmol N/m^3',
(PID.TID 0000.0001) > PTRACERS_advScheme(2)=33,
(PID.TID 0000.0001) > PTRACERS_diffKh(2)=0.E3,
(PID.TID 0000.0001) > PTRACERS_diffKr(2)=1.E-5,
(PID.TID 0000.0001) > PTRACERS_useGMRedi(2)=.TRUE. ,
(PID.TID 0000.0001) > PTRACERS_useKPP(2)=.FALSE.,
(PID.TID 0000.0001) > PTRACERS_initialFile(2)='../input/input_ocmip/no3_uM.bin',
(PID.TID 0000.0001) ># tracer 3 - dissolved iron
(PID.TID 0000.0001) > PTRACERS_names(3)='FeT',
(PID.TID 0000.0001) > PTRACERS_units(3)='mmol Fe/m^3',
(PID.TID 0000.0001) > PTRACERS_advScheme(3)=33,
(PID.TID 0000.0001) > PTRACERS_diffKh(3)=0.E3,
(PID.TID 0000.0001) > PTRACERS_diffKr(3)=1.E-5,
(PID.TID 0000.0001) > PTRACERS_useGMRedi(3)=.TRUE. ,
(PID.TID 0000.0001) > PTRACERS_useKPP(3)=.FALSE.,
(PID.TID 0000.0001) > PTRACERS_initialFile(3)='../input/input_ocmip/fet_run136.bin',
(PID.TID 0000.0001) ># tracer 4 - silicic acid
(PID.TID 0000.0001) > PTRACERS_names(4)='SiO2',
(PID.TID 0000.0001) > PTRACERS_units(4)='mmol Si/m^3',
(PID.TID 0000.0001) > PTRACERS_advScheme(4)=33,
(PID.TID 0000.0001) > PTRACERS_diffKh(4)=0.E3,
(PID.TID 0000.0001) > PTRACERS_diffKr(4)=1.E-5,
(PID.TID 0000.0001) > PTRACERS_useGMRedi(4)=.TRUE. ,
(PID.TID 0000.0001) > PTRACERS_useKPP(4)=.FALSE.,
(PID.TID 0000.0001) > PTRACERS_initialFile(4)='../input/input_ocmip/sio2_uM.bin',
(PID.TID 0000.0001) ># tracer 5 - DOP
(PID.TID 0000.0001) > PTRACERS_names(5)='DOP',
(PID.TID 0000.0001) > PTRACERS_units(5)='mmol P/m^3',
(PID.TID 0000.0001) > PTRACERS_advScheme(5)=33,
(PID.TID 0000.0001) > PTRACERS_diffKh(5)=0.E3,
(PID.TID 0000.0001) > PTRACERS_diffKr(5)=1.E-5,
(PID.TID 0000.0001) > PTRACERS_useGMRedi(5)=.TRUE. ,
(PID.TID 0000.0001) > PTRACERS_useKPP(5)=.FALSE. ,
(PID.TID 0000.0001) > PTRACERS_initialFile(5)='../input/input_ocmip/dop_run136.bin',
(PID.TID 0000.0001) ># tracer 6 - DON
(PID.TID 0000.0001) > PTRACERS_names(6)='DON',
(PID.TID 0000.0001) > PTRACERS_units(6)='mmol N/m^3',
(PID.TID 0000.0001) > PTRACERS_advScheme(6)=33,
(PID.TID 0000.0001) > PTRACERS_diffKh(6)=0.E3,
(PID.TID 0000.0001) > PTRACERS_diffKr(6)=1.E-5,
(PID.TID 0000.0001) > PTRACERS_useGMRedi(6)=.TRUE. ,
(PID.TID 0000.0001) > PTRACERS_useKPP(6)=.FALSE. ,
(PID.TID 0000.0001) > PTRACERS_initialFile(6)='../input/input_ocmip/don_init.bin',
(PID.TID 0000.0001) ># tracer 7 - DOFe
(PID.TID 0000.0001) > PTRACERS_names(7)='DOFe',
(PID.TID 0000.0001) > PTRACERS_units(7)='mmol Fe/m^3',
(PID.TID 0000.0001) > PTRACERS_advScheme(7)=33,
(PID.TID 0000.0001) > PTRACERS_diffKh(7)=0.E3,
(PID.TID 0000.0001) > PTRACERS_diffKr(7)=1.E-5,
(PID.TID 0000.0001) > PTRACERS_useGMRedi(7)=.TRUE. ,
(PID.TID 0000.0001) > PTRACERS_useKPP(7)=.FALSE. ,
(PID.TID 0000.0001) > PTRACERS_initialFile(7)='../input/input_ocmip/dof_run136.bin',
(PID.TID 0000.0001) ># tracer 8 - ZOO1P
(PID.TID 0000.0001) > PTRACERS_names(8)='ZOO1P',
(PID.TID 0000.0001) > PTRACERS_units(8)='mmol P/m^3',
(PID.TID 0000.0001) > PTRACERS_advScheme(8)=33,
(PID.TID 0000.0001) > PTRACERS_diffKh(8)=0.E3,
(PID.TID 0000.0001) > PTRACERS_diffKr(8)=1.E-5,
(PID.TID 0000.0001) > PTRACERS_useGMRedi(8)=.TRUE. ,
(PID.TID 0000.0001) > PTRACERS_useKPP(8)=.FALSE. ,
(PID.TID 0000.0001) > PTRACERS_initialFile(8)='../input/input_ocmip/seawifs_zoo_p2.bin',
(PID.TID 0000.0001) ># tracer 9 - ZOO1N
(PID.TID 0000.0001) > PTRACERS_names(9)='ZOO1N',
(PID.TID 0000.0001) > PTRACERS_units(9)='mmol N/m^3'
(PID.TID 0000.0001) > PTRACERS_advScheme(9)=33,
(PID.TID 0000.0001) > PTRACERS_diffKh(9)=0.E3,
(PID.TID 0000.0001) > PTRACERS_diffKr(9)=1.E-5,
(PID.TID 0000.0001) > PTRACERS_useGMRedi(9)=.TRUE. ,
(PID.TID 0000.0001) > PTRACERS_useKPP(9)=.FALSE. ,
(PID.TID 0000.0001) > PTRACERS_initialFile(9)='../input/input_ocmip/seawifs_zoo_n2.bin',
(PID.TID 0000.0001) ># tracer 10 - ZOO1Fe
(PID.TID 0000.0001) > PTRACERS_names(10)='ZOO1Fe',
(PID.TID 0000.0001) > PTRACERS_units(10)='mmol Fe/m^3'
(PID.TID 0000.0001) > PTRACERS_advScheme(10)=33,
(PID.TID 0000.0001) > PTRACERS_diffKh(10)=0.E3,
(PID.TID 0000.0001) > PTRACERS_diffKr(10)=1.E-5,
(PID.TID 0000.0001) > PTRACERS_useGMRedi(10)=.TRUE. ,
(PID.TID 0000.0001) > PTRACERS_useKPP(10)=.FALSE. ,
(PID.TID 0000.0001) > PTRACERS_initialFile(10)='../input/input_ocmip/seawifs_zoo_fe2.bin',
(PID.TID 0000.0001) ># tracer 11 - ZOO1Si
(PID.TID 0000.0001) > PTRACERS_names(11)='ZOO1Si',
(PID.TID 0000.0001) > PTRACERS_units(11)='mmol Si/m^3'
(PID.TID 0000.0001) > PTRACERS_advScheme(11)=33,
(PID.TID 0000.0001) > PTRACERS_diffKh(11)=0.E3,
(PID.TID 0000.0001) > PTRACERS_diffKr(11)=1.E-5,
(PID.TID 0000.0001) > PTRACERS_useGMRedi(11)=.TRUE. ,
(PID.TID 0000.0001) > PTRACERS_useKPP(11)=.FALSE. ,
(PID.TID 0000.0001) > PTRACERS_initialFile(11)='../input/input_ocmip/seawifs_zoo_si2.bin',
(PID.TID 0000.0001) ># tracer 12 - ZOO2P
(PID.TID 0000.0001) > PTRACERS_names(12)='ZOO2P',
(PID.TID 0000.0001) > PTRACERS_units(12)='mmol P/m^3',
(PID.TID 0000.0001) > PTRACERS_advScheme(12)=33,
(PID.TID 0000.0001) > PTRACERS_diffKh(12)=0.E3,
(PID.TID 0000.0001) > PTRACERS_diffKr(12)=1.E-5,
(PID.TID 0000.0001) > PTRACERS_useGMRedi(12)=.TRUE. ,
(PID.TID 0000.0001) > PTRACERS_useKPP(12)=.FALSE. ,
(PID.TID 0000.0001) > PTRACERS_initialFile(12)='../input/input_ocmip/seawifs_zoo_p2.bin',
(PID.TID 0000.0001) ># tracer 13 - ZOO2N
(PID.TID 0000.0001) > PTRACERS_names(13)='ZOO2N',
(PID.TID 0000.0001) > PTRACERS_units(13)='mmol N/m^3'
(PID.TID 0000.0001) > PTRACERS_advScheme(13)=33,
(PID.TID 0000.0001) > PTRACERS_diffKh(13)=0.E3,
(PID.TID 0000.0001) > PTRACERS_diffKr(13)=1.E-5,
(PID.TID 0000.0001) > PTRACERS_useGMRedi(13)=.TRUE. ,
(PID.TID 0000.0001) > PTRACERS_useKPP(13)=.FALSE. ,
(PID.TID 0000.0001) > PTRACERS_initialFile(13)='../input/input_ocmip/seawifs_zoo_n2.bin',
(PID.TID 0000.0001) ># tracer 14 - ZOO2Fe
(PID.TID 0000.0001) > PTRACERS_names(14)='ZOO2Fe',
(PID.TID 0000.0001) > PTRACERS_units(14)='mmol Fe/m^3'
(PID.TID 0000.0001) > PTRACERS_advScheme(14)=33,
(PID.TID 0000.0001) > PTRACERS_diffKh(14)=0.E3,
(PID.TID 0000.0001) > PTRACERS_diffKr(14)=1.E-5,
(PID.TID 0000.0001) > PTRACERS_useGMRedi(14)=.TRUE. ,
(PID.TID 0000.0001) > PTRACERS_useKPP(14)=.FALSE. ,
(PID.TID 0000.0001) > PTRACERS_initialFile(14)='../input/input_ocmip/seawifs_zoo_fe2.bin',
(PID.TID 0000.0001) ># tracer 15 - ZOO2Si
(PID.TID 0000.0001) > PTRACERS_names(15)='ZOO2Si',
(PID.TID 0000.0001) > PTRACERS_units(15)='mmol Si/m^3'
(PID.TID 0000.0001) > PTRACERS_advScheme(15)=33,
(PID.TID 0000.0001) > PTRACERS_diffKh(15)=0.E3,
(PID.TID 0000.0001) > PTRACERS_diffKr(15)=1.E-5,
(PID.TID 0000.0001) > PTRACERS_useGMRedi(15)=.TRUE. ,
(PID.TID 0000.0001) > PTRACERS_useKPP(15)=.FALSE. ,
(PID.TID 0000.0001) > PTRACERS_initialFile(15)='../input/input_ocmip/seawifs_zoo_si2.bin',
(PID.TID 0000.0001) ># tracer 16 - POP
(PID.TID 0000.0001) > PTRACERS_names(16)='POP',
(PID.TID 0000.0001) > PTRACERS_units(16)='mmol P/m^3',
(PID.TID 0000.0001) > PTRACERS_advScheme(16)=33,
(PID.TID 0000.0001) > PTRACERS_diffKh(16)=0.E3,
(PID.TID 0000.0001) > PTRACERS_diffKr(16)=1.E-5,
(PID.TID 0000.0001) > PTRACERS_useGMRedi(16)=.TRUE. ,
(PID.TID 0000.0001) > PTRACERS_useKPP(16)=.FALSE. ,
(PID.TID 0000.0001) > PTRACERS_initialFile(16)='../input/input_ocmip/pop_run136.bin',
(PID.TID 0000.0001) ># tracer 17 - PON
(PID.TID 0000.0001) > PTRACERS_names(17)='PON',
(PID.TID 0000.0001) > PTRACERS_units(17)='mmol N/m^3',
(PID.TID 0000.0001) > PTRACERS_advScheme(17)=33,
(PID.TID 0000.0001) > PTRACERS_diffKh(17)=0.E3,
(PID.TID 0000.0001) > PTRACERS_diffKr(17)=1.E-5,
(PID.TID 0000.0001) > PTRACERS_useGMRedi(17)=.TRUE. ,
(PID.TID 0000.0001) > PTRACERS_useKPP(17)=.FALSE. ,
(PID.TID 0000.0001) > PTRACERS_initialFile(17)='../input/input_ocmip/pon_init.bin',
(PID.TID 0000.0001) ># tracer 18 - POFe
(PID.TID 0000.0001) > PTRACERS_names(18)='POFe',
(PID.TID 0000.0001) > PTRACERS_units(18)='mmol Fe/m^3'
(PID.TID 0000.0001) > PTRACERS_advScheme(18)=33,
(PID.TID 0000.0001) > PTRACERS_diffKh(18)=0.E3,
(PID.TID 0000.0001) > PTRACERS_diffKr(18)=1.E-5,
(PID.TID 0000.0001) > PTRACERS_useGMRedi(18)=.TRUE. ,
(PID.TID 0000.0001) > PTRACERS_useKPP(18)=.FALSE. ,
(PID.TID 0000.0001) > PTRACERS_initialFile(18)='../input/input_ocmip/pof_run136.bin',
(PID.TID 0000.0001) ># tracer 19 - POSi
(PID.TID 0000.0001) > PTRACERS_names(19)='POSi',
(PID.TID 0000.0001) > PTRACERS_units(19)='mmol Si/m^3'
(PID.TID 0000.0001) > PTRACERS_advScheme(19)=33,
(PID.TID 0000.0001) > PTRACERS_diffKh(19)=0.E3,
(PID.TID 0000.0001) > PTRACERS_diffKr(19)=1.E-5,
(PID.TID 0000.0001) > PTRACERS_useGMRedi(19)=.TRUE. ,
(PID.TID 0000.0001) > PTRACERS_useKPP(19)=.FALSE. ,
(PID.TID 0000.0001) > PTRACERS_initialFile(19)='../input/input_ocmip/pos_run136.bin',
(PID.TID 0000.0001) ># tracer 20 - NH4
(PID.TID 0000.0001) > PTRACERS_names(20)='NH4',
(PID.TID 0000.0001) > PTRACERS_units(20)='mmol N/m^3'
(PID.TID 0000.0001) > PTRACERS_advScheme(20)=33,
(PID.TID 0000.0001) > PTRACERS_diffKh(20)=0.E3,
(PID.TID 0000.0001) > PTRACERS_diffKr(20)=1.E-5,
(PID.TID 0000.0001) > PTRACERS_useGMRedi(20)=.TRUE. ,
(PID.TID 0000.0001) > PTRACERS_useKPP(20)=.FALSE. ,
(PID.TID 0000.0001) > PTRACERS_initialFile(20)='../input/input_ocmip/nh4_run1_ocmip.bin',
(PID.TID 0000.0001) ># tracer 21 - NO2
(PID.TID 0000.0001) > PTRACERS_names(21)='NO2',
(PID.TID 0000.0001) > PTRACERS_units(21)='mmol N/m^3'
(PID.TID 0000.0001) > PTRACERS_advScheme(21)=33,
(PID.TID 0000.0001) > PTRACERS_diffKh(21)=0.E3,
(PID.TID 0000.0001) > PTRACERS_diffKr(21)=1.E-5,
(PID.TID 0000.0001) > PTRACERS_useGMRedi(21)=.TRUE. ,
(PID.TID 0000.0001) > PTRACERS_useKPP(21)=.FALSE. ,
(PID.TID 0000.0001) > PTRACERS_initialFile(21)='../input/input_ocmip/no2_run1_ocmip.bin',
(PID.TID 0000.0001) ># tracer 22 - PHYT01
(PID.TID 0000.0001) > PTRACERS_names(22)='Phy01',
(PID.TID 0000.0001) > PTRACERS_units(22)='mmol P/m^3'
(PID.TID 0000.0001) > PTRACERS_advScheme(22)=33,
(PID.TID 0000.0001) > PTRACERS_diffKh(22)=0.E3,
(PID.TID 0000.0001) > PTRACERS_diffKr(22)=1.E-5,
(PID.TID 0000.0001) > PTRACERS_useGMRedi(22)=.TRUE. ,
(PID.TID 0000.0001) > PTRACERS_useKPP(22)=.FALSE. ,
(PID.TID 0000.0001) > PTRACERS_initialFile(22)='../input/input_ocmip/seawifs_chl_p78.bin',
(PID.TID 0000.0001) ># tracer 23 - PHYT02
(PID.TID 0000.0001) > PTRACERS_names(23)='Phy02',
(PID.TID 0000.0001) > PTRACERS_units(23)='mmol P/m^3'
(PID.TID 0000.0001) > PTRACERS_advScheme(23)=33,
(PID.TID 0000.0001) > PTRACERS_diffKh(23)=0.E3,
(PID.TID 0000.0001) > PTRACERS_diffKr(23)=1.E-5,
(PID.TID 0000.0001) > PTRACERS_useGMRedi(23)=.TRUE. ,
(PID.TID 0000.0001) > PTRACERS_useKPP(23)=.FALSE. ,
(PID.TID 0000.0001) > PTRACERS_initialFile(23)='../input/input_ocmip/seawifs_chl_p78.bin',
(PID.TID 0000.0001) ># tracer 24 - PHYT03
(PID.TID 0000.0001) > PTRACERS_names(24)='Phy03',
(PID.TID 0000.0001) > PTRACERS_units(24)='mmol P/m^3'
(PID.TID 0000.0001) > PTRACERS_advScheme(24)=33,
(PID.TID 0000.0001) > PTRACERS_diffKh(24)=0.E3,
(PID.TID 0000.0001) > PTRACERS_diffKr(24)=1.E-5,
(PID.TID 0000.0001) > PTRACERS_useGMRedi(24)=.TRUE. ,
(PID.TID 0000.0001) > PTRACERS_useKPP(24)=.FALSE. ,
(PID.TID 0000.0001) > PTRACERS_initialFile(24)='../input/input_ocmip/seawifs_chl_p78.bin',
(PID.TID 0000.0001) ># tracer 25 - PHYT04
(PID.TID 0000.0001) > PTRACERS_names(25)='Phy04',
(PID.TID 0000.0001) > PTRACERS_units(25)='mmol P/m^3'
(PID.TID 0000.0001) > PTRACERS_advScheme(25)=33,
(PID.TID 0000.0001) > PTRACERS_diffKh(25)=0.E3,
(PID.TID 0000.0001) > PTRACERS_diffKr(25)=1.E-5,
(PID.TID 0000.0001) > PTRACERS_useGMRedi(25)=.TRUE. ,
(PID.TID 0000.0001) > PTRACERS_useKPP(25)=.FALSE. ,
(PID.TID 0000.0001) > PTRACERS_initialFile(25)='../input/input_ocmip/seawifs_chl_p78.bin',
(PID.TID 0000.0001) ># tracer 26 - PHYT05
(PID.TID 0000.0001) > PTRACERS_names(26)='Phy05',
(PID.TID 0000.0001) > PTRACERS_units(26)='mmol P/m^3'
(PID.TID 0000.0001) > PTRACERS_advScheme(26)=33,
(PID.TID 0000.0001) > PTRACERS_diffKh(26)=0.E3,
(PID.TID 0000.0001) > PTRACERS_diffKr(26)=1.E-5,
(PID.TID 0000.0001) > PTRACERS_useGMRedi(26)=.TRUE. ,
(PID.TID 0000.0001) > PTRACERS_useKPP(26)=.FALSE. ,
(PID.TID 0000.0001) > PTRACERS_initialFile(26)='../input/input_ocmip/seawifs_chl_p78.bin',
(PID.TID 0000.0001) ># tracer 27 - PHYT06
(PID.TID 0000.0001) > PTRACERS_names(27)='Phy06',
(PID.TID 0000.0001) > PTRACERS_units(27)='mmol P/m^3'
(PID.TID 0000.0001) > PTRACERS_advScheme(27)=33,
(PID.TID 0000.0001) > PTRACERS_diffKh(27)=0.E3,
(PID.TID 0000.0001) > PTRACERS_diffKr(27)=1.E-5,
(PID.TID 0000.0001) > PTRACERS_useGMRedi(27)=.TRUE. ,
(PID.TID 0000.0001) > PTRACERS_useKPP(27)=.FALSE. ,
(PID.TID 0000.0001) > PTRACERS_initialFile(27)='../input/input_ocmip/seawifs_chl_p78.bin',
(PID.TID 0000.0001) ># tracer 28 - PHYT07
(PID.TID 0000.0001) > PTRACERS_names(28)='Phy07',
(PID.TID 0000.0001) > PTRACERS_units(28)='mmol P/m^3'
(PID.TID 0000.0001) > PTRACERS_advScheme(28)=33,
(PID.TID 0000.0001) > PTRACERS_diffKh(28)=0.E3,
(PID.TID 0000.0001) > PTRACERS_diffKr(28)=1.E-5,
(PID.TID 0000.0001) > PTRACERS_useGMRedi(28)=.TRUE. ,
(PID.TID 0000.0001) > PTRACERS_useKPP(28)=.FALSE. ,
(PID.TID 0000.0001) > PTRACERS_initialFile(28)='../input/input_ocmip/seawifs_chl_p78.bin',
(PID.TID 0000.0001) ># tracer 29 - PHYT08
(PID.TID 0000.0001) > PTRACERS_names(29)='Phy08',
(PID.TID 0000.0001) > PTRACERS_units(29)='mmol P/m^3'
(PID.TID 0000.0001) > PTRACERS_advScheme(29)=33,
(PID.TID 0000.0001) > PTRACERS_diffKh(29)=0.E3,
(PID.TID 0000.0001) > PTRACERS_diffKr(29)=1.E-5,
(PID.TID 0000.0001) > PTRACERS_useGMRedi(29)=.TRUE. ,
(PID.TID 0000.0001) > PTRACERS_useKPP(29)=.FALSE. ,
(PID.TID 0000.0001) > PTRACERS_initialFile(29)='../input/input_ocmip/seawifs_chl_p78.bin',
(PID.TID 0000.0001) ># tracer 30 - PHYT09
(PID.TID 0000.0001) > PTRACERS_names(30)='Phy09',
(PID.TID 0000.0001) > PTRACERS_units(30)='mmol P/m^3'
(PID.TID 0000.0001) > PTRACERS_advScheme(30)=33,
(PID.TID 0000.0001) > PTRACERS_diffKh(30)=0.E3,
(PID.TID 0000.0001) > PTRACERS_diffKr(30)=1.E-5,
(PID.TID 0000.0001) > PTRACERS_useGMRedi(30)=.TRUE. ,
(PID.TID 0000.0001) > PTRACERS_useKPP(30)=.FALSE. ,
(PID.TID 0000.0001) > PTRACERS_initialFile(30)='../input/input_ocmip/seawifs_chl_p78.bin',
(PID.TID 0000.0001) ># tracer 31 - PHYT10
(PID.TID 0000.0001) > PTRACERS_names(31)='Phy10',
(PID.TID 0000.0001) > PTRACERS_units(31)='mmol P/m^3'
(PID.TID 0000.0001) > PTRACERS_advScheme(31)=33,
(PID.TID 0000.0001) > PTRACERS_diffKh(31)=0.E3,
(PID.TID 0000.0001) > PTRACERS_diffKr(31)=1.E-5,
(PID.TID 0000.0001) > PTRACERS_useGMRedi(31)=.TRUE. ,
(PID.TID 0000.0001) > PTRACERS_useKPP(31)=.FALSE. ,
(PID.TID 0000.0001) > PTRACERS_initialFile(31)='../input/input_ocmip/seawifs_chl_p78.bin',
(PID.TID 0000.0001) ># tracer 32 - PHYT11
(PID.TID 0000.0001) > PTRACERS_names(32)='Phy11',
(PID.TID 0000.0001) > PTRACERS_units(32)='mmol P/m^3'
(PID.TID 0000.0001) > PTRACERS_advScheme(32)=33,
(PID.TID 0000.0001) > PTRACERS_diffKh(32)=0.E3,
(PID.TID 0000.0001) > PTRACERS_diffKr(32)=1.E-5,
(PID.TID 0000.0001) > PTRACERS_useGMRedi(32)=.TRUE. ,
(PID.TID 0000.0001) > PTRACERS_useKPP(32)=.FALSE. ,
(PID.TID 0000.0001) > PTRACERS_initialFile(32)='../input/input_ocmip/seawifs_chl_p78.bin',
(PID.TID 0000.0001) ># tracer 33 - PHYT12
(PID.TID 0000.0001) > PTRACERS_names(33)='Phy12',
(PID.TID 0000.0001) > PTRACERS_units(33)='mmol P/m^3'
(PID.TID 0000.0001) > PTRACERS_advScheme(33)=33,
(PID.TID 0000.0001) > PTRACERS_diffKh(33)=0.E3,
(PID.TID 0000.0001) > PTRACERS_diffKr(33)=1.E-5,
(PID.TID 0000.0001) > PTRACERS_useGMRedi(33)=.TRUE. ,
(PID.TID 0000.0001) > PTRACERS_useKPP(33)=.FALSE. ,
(PID.TID 0000.0001) > PTRACERS_initialFile(33)='../input/input_ocmip/seawifs_chl_p78.bin',
(PID.TID 0000.0001) ># tracer 34 - PHYT13
(PID.TID 0000.0001) > PTRACERS_names(34)='Phy13',
(PID.TID 0000.0001) > PTRACERS_units(34)='mmol P/m^3'
(PID.TID 0000.0001) > PTRACERS_advScheme(34)=33,
(PID.TID 0000.0001) > PTRACERS_diffKh(34)=0.E3,
(PID.TID 0000.0001) > PTRACERS_diffKr(34)=1.E-5,
(PID.TID 0000.0001) > PTRACERS_useGMRedi(34)=.TRUE. ,
(PID.TID 0000.0001) > PTRACERS_useKPP(34)=.FALSE. ,
(PID.TID 0000.0001) > PTRACERS_initialFile(34)='../input/input_ocmip/seawifs_chl_p78.bin',
(PID.TID 0000.0001) ># tracer 35 - PHYT14
(PID.TID 0000.0001) > PTRACERS_names(35)='Phy14',
(PID.TID 0000.0001) > PTRACERS_units(35)='mmol P/m^3'
(PID.TID 0000.0001) > PTRACERS_advScheme(35)=33,
(PID.TID 0000.0001) > PTRACERS_diffKh(35)=0.E3,
(PID.TID 0000.0001) > PTRACERS_diffKr(35)=1.E-5,
(PID.TID 0000.0001) > PTRACERS_useGMRedi(35)=.TRUE. ,
(PID.TID 0000.0001) > PTRACERS_useKPP(35)=.FALSE. ,
(PID.TID 0000.0001) > PTRACERS_initialFile(35)='../input/input_ocmip/seawifs_chl_p78.bin',
(PID.TID 0000.0001) ># tracer 36 - PHYT15
(PID.TID 0000.0001) > PTRACERS_names(36)='Phy15',
(PID.TID 0000.0001) > PTRACERS_units(36)='mmol P/m^3'
(PID.TID 0000.0001) > PTRACERS_advScheme(36)=33,
(PID.TID 0000.0001) > PTRACERS_diffKh(36)=0.E3,
(PID.TID 0000.0001) > PTRACERS_diffKr(36)=1.E-5,
(PID.TID 0000.0001) > PTRACERS_useGMRedi(36)=.TRUE. ,
(PID.TID 0000.0001) > PTRACERS_useKPP(36)=.FALSE. ,
(PID.TID 0000.0001) > PTRACERS_initialFile(36)='../input/input_ocmip/seawifs_chl_p78.bin',
(PID.TID 0000.0001) ># tracer 37 - PHYT16
(PID.TID 0000.0001) > PTRACERS_names(37)='Phy16',
(PID.TID 0000.0001) > PTRACERS_units(37)='mmol P/m^3'
(PID.TID 0000.0001) > PTRACERS_advScheme(37)=33,
(PID.TID 0000.0001) > PTRACERS_diffKh(37)=0.E3,
(PID.TID 0000.0001) > PTRACERS_diffKr(37)=1.E-5,
(PID.TID 0000.0001) > PTRACERS_useGMRedi(37)=.TRUE. ,
(PID.TID 0000.0001) > PTRACERS_useKPP(37)=.FALSE. ,
(PID.TID 0000.0001) > PTRACERS_initialFile(37)='../input/input_ocmip/seawifs_chl_p78.bin',
(PID.TID 0000.0001) ># tracer 38 - PHYT17
(PID.TID 0000.0001) > PTRACERS_names(38)='Phy17',
(PID.TID 0000.0001) > PTRACERS_units(38)='mmol P/m^3'
(PID.TID 0000.0001) > PTRACERS_advScheme(38)=33,
(PID.TID 0000.0001) > PTRACERS_diffKh(38)=0.E3,
(PID.TID 0000.0001) > PTRACERS_diffKr(38)=1.E-5,
(PID.TID 0000.0001) > PTRACERS_useGMRedi(38)=.TRUE. ,
(PID.TID 0000.0001) > PTRACERS_useKPP(38)=.FALSE. ,
(PID.TID 0000.0001) > PTRACERS_initialFile(38)='../input/input_ocmip/seawifs_chl_p78.bin',
(PID.TID 0000.0001) ># tracer 39 - PHYT18
(PID.TID 0000.0001) > PTRACERS_names(39)='Phy18',
(PID.TID 0000.0001) > PTRACERS_units(39)='mmol P/m^3'
(PID.TID 0000.0001) > PTRACERS_advScheme(39)=33,
(PID.TID 0000.0001) > PTRACERS_diffKh(39)=0.E3,
(PID.TID 0000.0001) > PTRACERS_diffKr(39)=1.E-5,
(PID.TID 0000.0001) > PTRACERS_useGMRedi(39)=.TRUE. ,
(PID.TID 0000.0001) > PTRACERS_useKPP(39)=.FALSE. ,
(PID.TID 0000.0001) > PTRACERS_initialFile(39)='../input/input_ocmip/seawifs_chl_p78.bin',
(PID.TID 0000.0001) ># tracer 40 - PHYT19
(PID.TID 0000.0001) > PTRACERS_names(40)='Phy19',
(PID.TID 0000.0001) > PTRACERS_units(40)='mmol P/m^3'
(PID.TID 0000.0001) > PTRACERS_advScheme(40)=33,
(PID.TID 0000.0001) > PTRACERS_diffKh(40)=0.E3,
(PID.TID 0000.0001) > PTRACERS_diffKr(40)=1.E-5,
(PID.TID 0000.0001) > PTRACERS_useGMRedi(40)=.TRUE. ,
(PID.TID 0000.0001) > PTRACERS_useKPP(40)=.FALSE. ,
(PID.TID 0000.0001) > PTRACERS_initialFile(40)='../input/input_ocmip/seawifs_chl_p78.bin',
(PID.TID 0000.0001) ># tracer 41 - PHYT20
(PID.TID 0000.0001) > PTRACERS_names(41)='Phy20',
(PID.TID 0000.0001) > PTRACERS_units(41)='mmol P/m^3'
(PID.TID 0000.0001) > PTRACERS_advScheme(41)=33,
(PID.TID 0000.0001) > PTRACERS_diffKh(41)=0.E3,
(PID.TID 0000.0001) > PTRACERS_diffKr(41)=1.E-5,
(PID.TID 0000.0001) > PTRACERS_useGMRedi(41)=.TRUE. ,
(PID.TID 0000.0001) > PTRACERS_useKPP(41)=.FALSE. ,
(PID.TID 0000.0001) > PTRACERS_initialFile(41)='../input/input_ocmip/seawifs_chl_p78.bin',
(PID.TID 0000.0001) ># tracer 42 - PHYT21
(PID.TID 0000.0001) > PTRACERS_names(42)='Phy21',
(PID.TID 0000.0001) > PTRACERS_units(42)='mmol P/m^3'
(PID.TID 0000.0001) > PTRACERS_advScheme(42)=33,
(PID.TID 0000.0001) > PTRACERS_diffKh(42)=0.E3,
(PID.TID 0000.0001) > PTRACERS_diffKr(42)=1.E-5,
(PID.TID 0000.0001) > PTRACERS_useGMRedi(42)=.TRUE. ,
(PID.TID 0000.0001) > PTRACERS_useKPP(42)=.FALSE. ,
(PID.TID 0000.0001) > PTRACERS_initialFile(42)='../input/input_ocmip/seawifs_chl_p78.bin',
(PID.TID 0000.0001) ># tracer 43 - PHYT22
(PID.TID 0000.0001) > PTRACERS_names(43)='Phy22',
(PID.TID 0000.0001) > PTRACERS_units(43)='mmol P/m^3'
(PID.TID 0000.0001) > PTRACERS_advScheme(43)=33,
(PID.TID 0000.0001) > PTRACERS_diffKh(43)=0.E3,
(PID.TID 0000.0001) > PTRACERS_diffKr(43)=1.E-5,
(PID.TID 0000.0001) > PTRACERS_useGMRedi(43)=.TRUE. ,
(PID.TID 0000.0001) > PTRACERS_useKPP(43)=.FALSE. ,
(PID.TID 0000.0001) > PTRACERS_initialFile(43)='../input/input_ocmip/seawifs_chl_p78.bin',
(PID.TID 0000.0001) ># tracer 44 - PHYT23
(PID.TID 0000.0001) > PTRACERS_names(44)='Phy23',
(PID.TID 0000.0001) > PTRACERS_units(44)='mmol P/m^3'
(PID.TID 0000.0001) > PTRACERS_advScheme(44)=33,
(PID.TID 0000.0001) > PTRACERS_diffKh(44)=0.E3,
(PID.TID 0000.0001) > PTRACERS_diffKr(44)=1.E-5,
(PID.TID 0000.0001) > PTRACERS_useGMRedi(44)=.TRUE. ,
(PID.TID 0000.0001) > PTRACERS_useKPP(44)=.FALSE. ,
(PID.TID 0000.0001) > PTRACERS_initialFile(44)='../input/input_ocmip/seawifs_chl_p78.bin',
(PID.TID 0000.0001) ># tracer 45 - PHYT24
(PID.TID 0000.0001) > PTRACERS_names(45)='Phy24',
(PID.TID 0000.0001) > PTRACERS_units(45)='mmol P/m^3'
(PID.TID 0000.0001) > PTRACERS_advScheme(45)=33,
(PID.TID 0000.0001) > PTRACERS_diffKh(45)=0.E3,
(PID.TID 0000.0001) > PTRACERS_diffKr(45)=1.E-5,
(PID.TID 0000.0001) > PTRACERS_useGMRedi(45)=.TRUE. ,
(PID.TID 0000.0001) > PTRACERS_useKPP(45)=.FALSE. ,
(PID.TID 0000.0001) > PTRACERS_initialFile(45)='../input/input_ocmip/seawifs_chl_p78.bin',
(PID.TID 0000.0001) ># tracer 46 - PHYT25
(PID.TID 0000.0001) > PTRACERS_names(46)='Phy25',
(PID.TID 0000.0001) > PTRACERS_units(46)='mmol P/m^3'
(PID.TID 0000.0001) > PTRACERS_advScheme(46)=33,
(PID.TID 0000.0001) > PTRACERS_diffKh(46)=0.E3,
(PID.TID 0000.0001) > PTRACERS_diffKr(46)=1.E-5,
(PID.TID 0000.0001) > PTRACERS_useGMRedi(46)=.TRUE. ,
(PID.TID 0000.0001) > PTRACERS_useKPP(46)=.FALSE. ,
(PID.TID 0000.0001) > PTRACERS_initialFile(46)='../input/input_ocmip/seawifs_chl_p78.bin',
(PID.TID 0000.0001) ># tracer 47 - PHYT26
(PID.TID 0000.0001) > PTRACERS_names(47)='Phy26',
(PID.TID 0000.0001) > PTRACERS_units(47)='mmol P/m^3'
(PID.TID 0000.0001) > PTRACERS_advScheme(47)=33,
(PID.TID 0000.0001) > PTRACERS_diffKh(47)=0.E3,
(PID.TID 0000.0001) > PTRACERS_diffKr(47)=1.E-5,
(PID.TID 0000.0001) > PTRACERS_useGMRedi(47)=.TRUE. ,
(PID.TID 0000.0001) > PTRACERS_useKPP(47)=.FALSE. ,
(PID.TID 0000.0001) > PTRACERS_initialFile(47)='../input/input_ocmip/seawifs_chl_p78.bin',
(PID.TID 0000.0001) ># tracer 48 - PHYT27
(PID.TID 0000.0001) > PTRACERS_names(48)='Phy27',
(PID.TID 0000.0001) > PTRACERS_units(48)='mmol P/m^3'
(PID.TID 0000.0001) > PTRACERS_advScheme(48)=33,
(PID.TID 0000.0001) > PTRACERS_diffKh(48)=0.E3,
(PID.TID 0000.0001) > PTRACERS_diffKr(48)=1.E-5,
(PID.TID 0000.0001) > PTRACERS_useGMRedi(48)=.TRUE. ,
(PID.TID 0000.0001) > PTRACERS_useKPP(48)=.FALSE. ,
(PID.TID 0000.0001) > PTRACERS_initialFile(48)='../input/input_ocmip/seawifs_chl_p78.bin',
(PID.TID 0000.0001) ># tracer 49 - PHYT28
(PID.TID 0000.0001) > PTRACERS_names(49)='Phy28',
(PID.TID 0000.0001) > PTRACERS_units(49)='mmol P/m^3'
(PID.TID 0000.0001) > PTRACERS_advScheme(49)=33,
(PID.TID 0000.0001) > PTRACERS_diffKh(49)=0.E3,
(PID.TID 0000.0001) > PTRACERS_diffKr(49)=1.E-5,
(PID.TID 0000.0001) > PTRACERS_useGMRedi(49)=.TRUE. ,
(PID.TID 0000.0001) > PTRACERS_useKPP(49)=.FALSE. ,
(PID.TID 0000.0001) > PTRACERS_initialFile(49)='../input/input_ocmip/seawifs_chl_p78.bin',
(PID.TID 0000.0001) ># tracer 50 - PHYT29
(PID.TID 0000.0001) > PTRACERS_names(50)='Phy29',
(PID.TID 0000.0001) > PTRACERS_units(50)='mmol P/m^3'
(PID.TID 0000.0001) > PTRACERS_advScheme(50)=33,
(PID.TID 0000.0001) > PTRACERS_diffKh(50)=0.E3,
(PID.TID 0000.0001) > PTRACERS_diffKr(50)=1.E-5,
(PID.TID 0000.0001) > PTRACERS_useGMRedi(50)=.TRUE. ,
(PID.TID 0000.0001) > PTRACERS_useKPP(50)=.FALSE. ,
(PID.TID 0000.0001) > PTRACERS_initialFile(50)='../input/input_ocmip/seawifs_chl_p78.bin',
(PID.TID 0000.0001) ># tracer 51 - PHY30
(PID.TID 0000.0001) > PTRACERS_names(51)='Phy30',
(PID.TID 0000.0001) > PTRACERS_units(51)='mmol P/m^3'
(PID.TID 0000.0001) > PTRACERS_advScheme(51)=33,
(PID.TID 0000.0001) > PTRACERS_diffKh(51)=0.E3,
(PID.TID 0000.0001) > PTRACERS_diffKr(51)=1.E-5,
(PID.TID 0000.0001) > PTRACERS_useGMRedi(51)=.TRUE. ,
(PID.TID 0000.0001) > PTRACERS_useKPP(51)=.FALSE. ,
(PID.TID 0000.0001) > PTRACERS_initialFile(51)='../input/input_ocmip/seawifs_chl_p78.bin',
(PID.TID 0000.0001) ># tracer 52 - PHY31
(PID.TID 0000.0001) > PTRACERS_names(52)='Phy31',
(PID.TID 0000.0001) > PTRACERS_units(52)='mmol P/m^3'
(PID.TID 0000.0001) > PTRACERS_advScheme(52)=33,
(PID.TID 0000.0001) > PTRACERS_diffKh(52)=0.E3,
(PID.TID 0000.0001) > PTRACERS_diffKr(52)=1.E-5,
(PID.TID 0000.0001) > PTRACERS_useGMRedi(52)=.TRUE. ,
(PID.TID 0000.0001) > PTRACERS_useKPP(52)=.FALSE. ,
(PID.TID 0000.0001) > PTRACERS_initialFile(52)='../input/input_ocmip/seawifs_chl_p78.bin',
(PID.TID 0000.0001) ># tracer 53 - PHY32
(PID.TID 0000.0001) > PTRACERS_names(53)='Phy32',
(PID.TID 0000.0001) > PTRACERS_units(53)='mmol P/m^3'
(PID.TID 0000.0001) > PTRACERS_advScheme(53)=33,
(PID.TID 0000.0001) > PTRACERS_diffKh(53)=0.E3,
(PID.TID 0000.0001) > PTRACERS_diffKr(53)=1.E-5,
(PID.TID 0000.0001) > PTRACERS_useGMRedi(53)=.TRUE. ,
(PID.TID 0000.0001) > PTRACERS_useKPP(53)=.FALSE. ,
(PID.TID 0000.0001) > PTRACERS_initialFile(53)='../input/input_ocmip/seawifs_chl_p78.bin',
(PID.TID 0000.0001) ># tracer 54 - PHY33
(PID.TID 0000.0001) > PTRACERS_names(54)='Phy33',
(PID.TID 0000.0001) > PTRACERS_units(54)='mmol P/m^3'
(PID.TID 0000.0001) > PTRACERS_advScheme(54)=33,
(PID.TID 0000.0001) > PTRACERS_diffKh(54)=0.E3,
(PID.TID 0000.0001) > PTRACERS_diffKr(54)=1.E-5,
(PID.TID 0000.0001) > PTRACERS_useGMRedi(54)=.TRUE. ,
(PID.TID 0000.0001) > PTRACERS_useKPP(54)=.FALSE. ,
(PID.TID 0000.0001) > PTRACERS_initialFile(54)='../input/input_ocmip/seawifs_chl_p78.bin',
(PID.TID 0000.0001) ># tracer 55 - PHY34
(PID.TID 0000.0001) > PTRACERS_names(55)='Phy34',
(PID.TID 0000.0001) > PTRACERS_units(55)='mmol P/m^3'
(PID.TID 0000.0001) > PTRACERS_advScheme(55)=33,
(PID.TID 0000.0001) > PTRACERS_diffKh(55)=0.E3,
(PID.TID 0000.0001) > PTRACERS_diffKr(55)=1.E-5,
(PID.TID 0000.0001) > PTRACERS_useGMRedi(55)=.TRUE. ,
(PID.TID 0000.0001) > PTRACERS_useKPP(55)=.FALSE. ,
(PID.TID 0000.0001) > PTRACERS_initialFile(55)='../input/input_ocmip/seawifs_chl_p78.bin',
(PID.TID 0000.0001) ># tracer 56 - PHY35
(PID.TID 0000.0001) > PTRACERS_names(56)='Phy35',
(PID.TID 0000.0001) > PTRACERS_units(56)='mmol P/m^3'
(PID.TID 0000.0001) > PTRACERS_advScheme(56)=33,
(PID.TID 0000.0001) > PTRACERS_diffKh(56)=0.E3,
(PID.TID 0000.0001) > PTRACERS_diffKr(56)=1.E-5,
(PID.TID 0000.0001) > PTRACERS_useGMRedi(56)=.TRUE. ,
(PID.TID 0000.0001) > PTRACERS_useKPP(56)=.FALSE. ,
(PID.TID 0000.0001) > PTRACERS_initialFile(56)='../input/input_ocmip/seawifs_chl_p78.bin',
(PID.TID 0000.0001) ># tracer 57 - PHY36
(PID.TID 0000.0001) > PTRACERS_names(57)='Phy36',
(PID.TID 0000.0001) > PTRACERS_units(57)='mmol P/m^3'
(PID.TID 0000.0001) > PTRACERS_advScheme(57)=33,
(PID.TID 0000.0001) > PTRACERS_diffKh(57)=0.E3,
(PID.TID 0000.0001) > PTRACERS_diffKr(57)=1.E-5,
(PID.TID 0000.0001) > PTRACERS_useGMRedi(57)=.TRUE. ,
(PID.TID 0000.0001) > PTRACERS_useKPP(57)=.FALSE. ,
(PID.TID 0000.0001) > PTRACERS_initialFile(57)='../input/input_ocmip/seawifs_chl_p78.bin',
(PID.TID 0000.0001) ># tracer 58 - PHY37
(PID.TID 0000.0001) > PTRACERS_names(58)='Phy37',
(PID.TID 0000.0001) > PTRACERS_units(58)='mmol P/m^3'
(PID.TID 0000.0001) > PTRACERS_advScheme(58)=33,
(PID.TID 0000.0001) > PTRACERS_diffKh(58)=0.E3,
(PID.TID 0000.0001) > PTRACERS_diffKr(58)=1.E-5,
(PID.TID 0000.0001) > PTRACERS_useGMRedi(58)=.TRUE. ,
(PID.TID 0000.0001) > PTRACERS_useKPP(58)=.FALSE. ,
(PID.TID 0000.0001) > PTRACERS_initialFile(58)='../input/input_ocmip/seawifs_chl_p78.bin',
(PID.TID 0000.0001) ># tracer 59 - PHY38
(PID.TID 0000.0001) > PTRACERS_names(59)='Phy38',
(PID.TID 0000.0001) > PTRACERS_units(59)='mmol P/m^3'
(PID.TID 0000.0001) > PTRACERS_advScheme(59)=33,
(PID.TID 0000.0001) > PTRACERS_diffKh(59)=0.E3,
(PID.TID 0000.0001) > PTRACERS_diffKr(59)=1.E-5,
(PID.TID 0000.0001) > PTRACERS_useGMRedi(59)=.TRUE. ,
(PID.TID 0000.0001) > PTRACERS_useKPP(59)=.FALSE. ,
(PID.TID 0000.0001) > PTRACERS_initialFile(59)='../input/input_ocmip/seawifs_chl_p78.bin',
(PID.TID 0000.0001) ># tracer 60 - PHY39
(PID.TID 0000.0001) > PTRACERS_names(60)='Phy39',
(PID.TID 0000.0001) > PTRACERS_units(60)='mmol P/m^3'
(PID.TID 0000.0001) > PTRACERS_advScheme(60)=33,
(PID.TID 0000.0001) > PTRACERS_diffKh(60)=0.E3,
(PID.TID 0000.0001) > PTRACERS_diffKr(60)=1.E-5,
(PID.TID 0000.0001) > PTRACERS_useGMRedi(60)=.TRUE. ,
(PID.TID 0000.0001) > PTRACERS_useKPP(60)=.FALSE. ,
(PID.TID 0000.0001) > PTRACERS_initialFile(60)='../input/input_ocmip/seawifs_chl_p78.bin',
(PID.TID 0000.0001) ># tracer 61 - PHY40
(PID.TID 0000.0001) > PTRACERS_names(61)='Phy40',
(PID.TID 0000.0001) > PTRACERS_units(61)='mmol P/m^3'
(PID.TID 0000.0001) > PTRACERS_advScheme(61)=33,
(PID.TID 0000.0001) > PTRACERS_diffKh(61)=0.E3,
(PID.TID 0000.0001) > PTRACERS_diffKr(61)=1.E-5,
(PID.TID 0000.0001) > PTRACERS_useGMRedi(61)=.TRUE. ,
(PID.TID 0000.0001) > PTRACERS_useKPP(61)=.FALSE. ,
(PID.TID 0000.0001) > PTRACERS_initialFile(61)='../input/input_ocmip/seawifs_chl_p78.bin',
(PID.TID 0000.0001) ># tracer 62 - PHY41
(PID.TID 0000.0001) > PTRACERS_names(62)='Phy41',
(PID.TID 0000.0001) > PTRACERS_units(62)='mmol P/m^3'
(PID.TID 0000.0001) > PTRACERS_advScheme(62)=33,
(PID.TID 0000.0001) > PTRACERS_diffKh(62)=0.E3,
(PID.TID 0000.0001) > PTRACERS_diffKr(62)=1.E-5,
(PID.TID 0000.0001) > PTRACERS_useGMRedi(62)=.TRUE. ,
(PID.TID 0000.0001) > PTRACERS_useKPP(62)=.FALSE. ,
(PID.TID 0000.0001) > PTRACERS_initialFile(62)='../input/input_ocmip/seawifs_chl_p78.bin',
(PID.TID 0000.0001) ># tracer 63 - PHY42
(PID.TID 0000.0001) > PTRACERS_names(63)='Phy42',
(PID.TID 0000.0001) > PTRACERS_units(63)='mmol P/m^3'
(PID.TID 0000.0001) > PTRACERS_advScheme(63)=33,
(PID.TID 0000.0001) > PTRACERS_diffKh(63)=0.E3,
(PID.TID 0000.0001) > PTRACERS_diffKr(63)=1.E-5,
(PID.TID 0000.0001) > PTRACERS_useGMRedi(63)=.TRUE. ,
(PID.TID 0000.0001) > PTRACERS_useKPP(63)=.FALSE. ,
(PID.TID 0000.0001) > PTRACERS_initialFile(63)='../input/input_ocmip/seawifs_chl_p78.bin',
(PID.TID 0000.0001) ># tracer 64 - PHY43
(PID.TID 0000.0001) > PTRACERS_names(64)='Phy43',
(PID.TID 0000.0001) > PTRACERS_units(64)='mmol P/m^3'
(PID.TID 0000.0001) > PTRACERS_advScheme(64)=33,
(PID.TID 0000.0001) > PTRACERS_diffKh(64)=0.E3,
(PID.TID 0000.0001) > PTRACERS_diffKr(64)=1.E-5,
(PID.TID 0000.0001) > PTRACERS_useGMRedi(64)=.TRUE. ,
(PID.TID 0000.0001) > PTRACERS_useKPP(64)=.FALSE. ,
(PID.TID 0000.0001) > PTRACERS_initialFile(64)='../input/input_ocmip/seawifs_chl_p78.bin',
(PID.TID 0000.0001) ># tracer 65 - PHY44
(PID.TID 0000.0001) > PTRACERS_names(65)='Phy44',
(PID.TID 0000.0001) > PTRACERS_units(65)='mmol P/m^3'
(PID.TID 0000.0001) > PTRACERS_advScheme(65)=33,
(PID.TID 0000.0001) > PTRACERS_diffKh(65)=0.E3,
(PID.TID 0000.0001) > PTRACERS_diffKr(65)=1.E-5,
(PID.TID 0000.0001) > PTRACERS_useGMRedi(65)=.TRUE. ,
(PID.TID 0000.0001) > PTRACERS_useKPP(65)=.FALSE. ,
(PID.TID 0000.0001) > PTRACERS_initialFile(65)='../input/input_ocmip/seawifs_chl_p78.bin',
(PID.TID 0000.0001) ># tracer 66 - PHY45
(PID.TID 0000.0001) > PTRACERS_names(66)='Phy45',
(PID.TID 0000.0001) > PTRACERS_units(66)='mmol P/m^3'
(PID.TID 0000.0001) > PTRACERS_advScheme(66)=33,
(PID.TID 0000.0001) > PTRACERS_diffKh(66)=0.E3,
(PID.TID 0000.0001) > PTRACERS_diffKr(66)=1.E-5,
(PID.TID 0000.0001) > PTRACERS_useGMRedi(66)=.TRUE. ,
(PID.TID 0000.0001) > PTRACERS_useKPP(66)=.FALSE. ,
(PID.TID 0000.0001) > PTRACERS_initialFile(66)='../input/input_ocmip/seawifs_chl_p78.bin',
(PID.TID 0000.0001) ># tracer 67 - PHY46
(PID.TID 0000.0001) > PTRACERS_names(67)='Phy46',
(PID.TID 0000.0001) > PTRACERS_units(67)='mmol P/m^3'
(PID.TID 0000.0001) > PTRACERS_advScheme(67)=33,
(PID.TID 0000.0001) > PTRACERS_diffKh(67)=0.E3,
(PID.TID 0000.0001) > PTRACERS_diffKr(67)=1.E-5,
(PID.TID 0000.0001) > PTRACERS_useGMRedi(67)=.TRUE. ,
(PID.TID 0000.0001) > PTRACERS_useKPP(67)=.FALSE. ,
(PID.TID 0000.0001) > PTRACERS_initialFile(67)='../input/input_ocmip/seawifs_chl_p78.bin',
(PID.TID 0000.0001) ># tracer 68 - PHY47
(PID.TID 0000.0001) > PTRACERS_names(68)='Phy47',
(PID.TID 0000.0001) > PTRACERS_units(68)='mmol P/m^3'
(PID.TID 0000.0001) > PTRACERS_advScheme(68)=33,
(PID.TID 0000.0001) > PTRACERS_diffKh(68)=0.E3,
(PID.TID 0000.0001) > PTRACERS_diffKr(68)=1.E-5,
(PID.TID 0000.0001) > PTRACERS_useGMRedi(68)=.TRUE. ,
(PID.TID 0000.0001) > PTRACERS_useKPP(68)=.FALSE. ,
(PID.TID 0000.0001) > PTRACERS_initialFile(68)='../input/input_ocmip/seawifs_chl_p78.bin',
(PID.TID 0000.0001) ># tracer 69 - PHY48
(PID.TID 0000.0001) > PTRACERS_names(69)='Phy48',
(PID.TID 0000.0001) > PTRACERS_units(69)='mmol P/m^3'
(PID.TID 0000.0001) > PTRACERS_advScheme(69)=33,
(PID.TID 0000.0001) > PTRACERS_diffKh(69)=0.E3,
(PID.TID 0000.0001) > PTRACERS_diffKr(69)=1.E-5,
(PID.TID 0000.0001) > PTRACERS_useGMRedi(69)=.TRUE. ,
(PID.TID 0000.0001) > PTRACERS_useKPP(69)=.FALSE. ,
(PID.TID 0000.0001) > PTRACERS_initialFile(69)='../input/input_ocmip/seawifs_chl_p78.bin',
(PID.TID 0000.0001) ># tracer 70 - PHY49
(PID.TID 0000.0001) > PTRACERS_names(70)='Phy49',
(PID.TID 0000.0001) > PTRACERS_units(70)='mmol P/m^3'
(PID.TID 0000.0001) > PTRACERS_advScheme(70)=33,
(PID.TID 0000.0001) > PTRACERS_diffKh(70)=0.E3,
(PID.TID 0000.0001) > PTRACERS_diffKr(70)=1.E-5,
(PID.TID 0000.0001) > PTRACERS_useGMRedi(70)=.TRUE. ,
(PID.TID 0000.0001) > PTRACERS_useKPP(70)=.FALSE. ,
(PID.TID 0000.0001) > PTRACERS_initialFile(70)='../input/input_ocmip/seawifs_chl_p78.bin',
(PID.TID 0000.0001) ># tracer 71 - PHY50
(PID.TID 0000.0001) > PTRACERS_names(71)='Phy50',
(PID.TID 0000.0001) > PTRACERS_units(71)='mmol P/m^3'
(PID.TID 0000.0001) > PTRACERS_advScheme(71)=33,
(PID.TID 0000.0001) > PTRACERS_diffKh(71)=0.E3,
(PID.TID 0000.0001) > PTRACERS_diffKr(71)=1.E-5,
(PID.TID 0000.0001) > PTRACERS_useGMRedi(71)=.TRUE. ,
(PID.TID 0000.0001) > PTRACERS_useKPP(71)=.FALSE. ,
(PID.TID 0000.0001) > PTRACERS_initialFile(71)='../input/input_ocmip/seawifs_chl_p78.bin',
(PID.TID 0000.0001) ># tracer 72 - PHY51
(PID.TID 0000.0001) > PTRACERS_names(72)='Phy51',
(PID.TID 0000.0001) > PTRACERS_units(72)='mmol P/m^3'
(PID.TID 0000.0001) > PTRACERS_advScheme(72)=33,
(PID.TID 0000.0001) > PTRACERS_diffKh(72)=0.E3,
(PID.TID 0000.0001) > PTRACERS_diffKr(72)=1.E-5,
(PID.TID 0000.0001) > PTRACERS_useGMRedi(72)=.TRUE. ,
(PID.TID 0000.0001) > PTRACERS_useKPP(72)=.FALSE. ,
(PID.TID 0000.0001) > PTRACERS_initialFile(72)='../input/input_ocmip/seawifs_chl_p78.bin',
(PID.TID 0000.0001) ># tracer 73 - PHY52
(PID.TID 0000.0001) > PTRACERS_names(73)='Phy52',
(PID.TID 0000.0001) > PTRACERS_units(73)='mmol P/m^3'
(PID.TID 0000.0001) > PTRACERS_advScheme(73)=33,
(PID.TID 0000.0001) > PTRACERS_diffKh(73)=0.E3,
(PID.TID 0000.0001) > PTRACERS_diffKr(73)=1.E-5,
(PID.TID 0000.0001) > PTRACERS_useGMRedi(73)=.TRUE. ,
(PID.TID 0000.0001) > PTRACERS_useKPP(73)=.FALSE. ,
(PID.TID 0000.0001) > PTRACERS_initialFile(73)='../input/input_ocmip/seawifs_chl_p78.bin',
(PID.TID 0000.0001) ># tracer 74 - PHY53
(PID.TID 0000.0001) > PTRACERS_names(74)='Phy53',
(PID.TID 0000.0001) > PTRACERS_units(74)='mmol P/m^3'
(PID.TID 0000.0001) > PTRACERS_advScheme(74)=33,
(PID.TID 0000.0001) > PTRACERS_diffKh(74)=0.E3,
(PID.TID 0000.0001) > PTRACERS_diffKr(74)=1.E-5,
(PID.TID 0000.0001) > PTRACERS_useGMRedi(74)=.TRUE. ,
(PID.TID 0000.0001) > PTRACERS_useKPP(74)=.FALSE. ,
(PID.TID 0000.0001) > PTRACERS_initialFile(74)='../input/input_ocmip/seawifs_chl_p78.bin',
(PID.TID 0000.0001) ># tracer 75 - PHY54
(PID.TID 0000.0001) > PTRACERS_names(75)='Phy54',
(PID.TID 0000.0001) > PTRACERS_units(75)='mmol P/m^3'
(PID.TID 0000.0001) > PTRACERS_advScheme(75)=33,
(PID.TID 0000.0001) > PTRACERS_diffKh(75)=0.E3,
(PID.TID 0000.0001) > PTRACERS_diffKr(75)=1.E-5,
(PID.TID 0000.0001) > PTRACERS_useGMRedi(75)=.TRUE. ,
(PID.TID 0000.0001) > PTRACERS_useKPP(75)=.FALSE. ,
(PID.TID 0000.0001) > PTRACERS_initialFile(75)='../input/input_ocmip/seawifs_chl_p78.bin',
(PID.TID 0000.0001) ># tracer 76 - PHY55
(PID.TID 0000.0001) > PTRACERS_names(76)='Phy55',
(PID.TID 0000.0001) > PTRACERS_units(76)='mmol P/m^3'
(PID.TID 0000.0001) > PTRACERS_advScheme(76)=33,
(PID.TID 0000.0001) > PTRACERS_diffKh(76)=0.E3,
(PID.TID 0000.0001) > PTRACERS_diffKr(76)=1.E-5,
(PID.TID 0000.0001) > PTRACERS_useGMRedi(76)=.TRUE. ,
(PID.TID 0000.0001) > PTRACERS_useKPP(76)=.FALSE. ,
(PID.TID 0000.0001) > PTRACERS_initialFile(76)='../input/input_ocmip/seawifs_chl_p78.bin',
(PID.TID 0000.0001) ># tracer 77 - PHY56
(PID.TID 0000.0001) > PTRACERS_names(77)='Phy56',
(PID.TID 0000.0001) > PTRACERS_units(77)='mmol P/m^3'
(PID.TID 0000.0001) > PTRACERS_advScheme(77)=33,
(PID.TID 0000.0001) > PTRACERS_diffKh(77)=0.E3,
(PID.TID 0000.0001) > PTRACERS_diffKr(77)=1.E-5,
(PID.TID 0000.0001) > PTRACERS_useGMRedi(77)=.TRUE. ,
(PID.TID 0000.0001) > PTRACERS_useKPP(77)=.FALSE. ,
(PID.TID 0000.0001) > PTRACERS_initialFile(77)='../input/input_ocmip/seawifs_chl_p78.bin',
(PID.TID 0000.0001) ># tracer 78 - PHY57
(PID.TID 0000.0001) > PTRACERS_names(78)='Phy57',
(PID.TID 0000.0001) > PTRACERS_units(78)='mmol P/m^3'
(PID.TID 0000.0001) > PTRACERS_advScheme(78)=33,
(PID.TID 0000.0001) > PTRACERS_diffKh(78)=0.E3,
(PID.TID 0000.0001) > PTRACERS_diffKr(78)=1.E-5,
(PID.TID 0000.0001) > PTRACERS_useGMRedi(78)=.TRUE. ,
(PID.TID 0000.0001) > PTRACERS_useKPP(78)=.FALSE. ,
(PID.TID 0000.0001) > PTRACERS_initialFile(78)='../input/input_ocmip/seawifs_chl_p78.bin',
(PID.TID 0000.0001) ># tracer 79 - PHY58
(PID.TID 0000.0001) > PTRACERS_names(79)='Phy58',
(PID.TID 0000.0001) > PTRACERS_units(79)='mmol P/m^3'
(PID.TID 0000.0001) > PTRACERS_advScheme(79)=33,
(PID.TID 0000.0001) > PTRACERS_diffKh(79)=0.E3,
(PID.TID 0000.0001) > PTRACERS_diffKr(79)=1.E-5,
(PID.TID 0000.0001) > PTRACERS_useGMRedi(79)=.TRUE. ,
(PID.TID 0000.0001) > PTRACERS_useKPP(79)=.FALSE. ,
(PID.TID 0000.0001) > PTRACERS_initialFile(79)='../input/input_ocmip/seawifs_chl_p78.bin',
(PID.TID 0000.0001) ># tracer 80 - PHY59
(PID.TID 0000.0001) > PTRACERS_names(80)='Phy59',
(PID.TID 0000.0001) > PTRACERS_units(80)='mmol P/m^3'
(PID.TID 0000.0001) > PTRACERS_advScheme(80)=33,
(PID.TID 0000.0001) > PTRACERS_diffKh(80)=0.E3,
(PID.TID 0000.0001) > PTRACERS_diffKr(80)=1.E-5,
(PID.TID 0000.0001) > PTRACERS_useGMRedi(80)=.TRUE. ,
(PID.TID 0000.0001) > PTRACERS_useKPP(80)=.FALSE. ,
(PID.TID 0000.0001) > PTRACERS_initialFile(80)='../input/input_ocmip/seawifs_chl_p78.bin',
(PID.TID 0000.0001) ># tracer 81 - PHY60
(PID.TID 0000.0001) > PTRACERS_names(81)='Phy60',
(PID.TID 0000.0001) > PTRACERS_units(81)='mmol P/m^3'
(PID.TID 0000.0001) > PTRACERS_advScheme(81)=33,
(PID.TID 0000.0001) > PTRACERS_diffKh(81)=0.E3,
(PID.TID 0000.0001) > PTRACERS_diffKr(81)=1.E-5,
(PID.TID 0000.0001) > PTRACERS_useGMRedi(81)=.TRUE. ,
(PID.TID 0000.0001) > PTRACERS_useKPP(81)=.FALSE. ,
(PID.TID 0000.0001) > PTRACERS_initialFile(81)='../input/input_ocmip/seawifs_chl_p78.bin',
(PID.TID 0000.0001) ># tracer 82 - PHY61
(PID.TID 0000.0001) > PTRACERS_names(82)='Phy61',
(PID.TID 0000.0001) > PTRACERS_units(82)='mmol P/m^3'
(PID.TID 0000.0001) > PTRACERS_advScheme(82)=33,
(PID.TID 0000.0001) > PTRACERS_diffKh(82)=0.E3,
(PID.TID 0000.0001) > PTRACERS_diffKr(82)=1.E-5,
(PID.TID 0000.0001) > PTRACERS_useGMRedi(82)=.TRUE. ,
(PID.TID 0000.0001) > PTRACERS_useKPP(82)=.FALSE. ,
(PID.TID 0000.0001) > PTRACERS_initialFile(82)='../input/input_ocmip/seawifs_chl_p78.bin',
(PID.TID 0000.0001) ># tracer 83 - PHY62
(PID.TID 0000.0001) > PTRACERS_names(83)='Phy62',
(PID.TID 0000.0001) > PTRACERS_units(83)='mmol P/m^3'
(PID.TID 0000.0001) > PTRACERS_advScheme(83)=33,
(PID.TID 0000.0001) > PTRACERS_diffKh(83)=0.E3,
(PID.TID 0000.0001) > PTRACERS_diffKr(83)=1.E-5,
(PID.TID 0000.0001) > PTRACERS_useGMRedi(83)=.TRUE. ,
(PID.TID 0000.0001) > PTRACERS_useKPP(83)=.FALSE. ,
(PID.TID 0000.0001) > PTRACERS_initialFile(83)='../input/input_ocmip/seawifs_chl_p78.bin',
(PID.TID 0000.0001) ># tracer 84 - PHY63
(PID.TID 0000.0001) > PTRACERS_names(84)='Phy63',
(PID.TID 0000.0001) > PTRACERS_units(84)='mmol P/m^3'
(PID.TID 0000.0001) > PTRACERS_advScheme(84)=33,
(PID.TID 0000.0001) > PTRACERS_diffKh(84)=0.E3,
(PID.TID 0000.0001) > PTRACERS_diffKr(84)=1.E-5,
(PID.TID 0000.0001) > PTRACERS_useGMRedi(84)=.TRUE. ,
(PID.TID 0000.0001) > PTRACERS_useKPP(84)=.FALSE. ,
(PID.TID 0000.0001) > PTRACERS_initialFile(84)='../input/input_ocmip/seawifs_chl_p78.bin',
(PID.TID 0000.0001) ># tracer 85 - PHY64
(PID.TID 0000.0001) > PTRACERS_names(85)='Phy64',
(PID.TID 0000.0001) > PTRACERS_units(85)='mmol P/m^3'
(PID.TID 0000.0001) > PTRACERS_advScheme(85)=33,
(PID.TID 0000.0001) > PTRACERS_diffKh(85)=0.E3,
(PID.TID 0000.0001) > PTRACERS_diffKr(85)=1.E-5,
(PID.TID 0000.0001) > PTRACERS_useGMRedi(85)=.TRUE. ,
(PID.TID 0000.0001) > PTRACERS_useKPP(85)=.FALSE. ,
(PID.TID 0000.0001) > PTRACERS_initialFile(85)='../input/input_ocmip/seawifs_chl_p78.bin',
(PID.TID 0000.0001) ># tracer 86 - PHY65
(PID.TID 0000.0001) > PTRACERS_names(86)='Phy65',
(PID.TID 0000.0001) > PTRACERS_units(86)='mmol P/m^3'
(PID.TID 0000.0001) > PTRACERS_advScheme(86)=33,
(PID.TID 0000.0001) > PTRACERS_diffKh(86)=0.E3,
(PID.TID 0000.0001) > PTRACERS_diffKr(86)=1.E-5,
(PID.TID 0000.0001) > PTRACERS_useGMRedi(86)=.TRUE. ,
(PID.TID 0000.0001) > PTRACERS_useKPP(86)=.FALSE. ,
(PID.TID 0000.0001) > PTRACERS_initialFile(86)='../input/input_ocmip/seawifs_chl_p78.bin',
(PID.TID 0000.0001) ># tracer 87 - PHY66
(PID.TID 0000.0001) > PTRACERS_names(87)='Phy66',
(PID.TID 0000.0001) > PTRACERS_units(87)='mmol P/m^3'
(PID.TID 0000.0001) > PTRACERS_advScheme(87)=33,
(PID.TID 0000.0001) > PTRACERS_diffKh(87)=0.E3,
(PID.TID 0000.0001) > PTRACERS_diffKr(87)=1.E-5,
(PID.TID 0000.0001) > PTRACERS_useGMRedi(87)=.TRUE. ,
(PID.TID 0000.0001) > PTRACERS_useKPP(87)=.FALSE. ,
(PID.TID 0000.0001) > PTRACERS_initialFile(87)='../input/input_ocmip/seawifs_chl_p78.bin',
(PID.TID 0000.0001) ># tracer 88 - PHY67
(PID.TID 0000.0001) > PTRACERS_names(88)='Phy67',
(PID.TID 0000.0001) > PTRACERS_units(88)='mmol P/m^3'
(PID.TID 0000.0001) > PTRACERS_advScheme(88)=33,
(PID.TID 0000.0001) > PTRACERS_diffKh(88)=0.E3,
(PID.TID 0000.0001) > PTRACERS_diffKr(88)=1.E-5,
(PID.TID 0000.0001) > PTRACERS_useGMRedi(88)=.TRUE. ,
(PID.TID 0000.0001) > PTRACERS_useKPP(88)=.FALSE. ,
(PID.TID 0000.0001) > PTRACERS_initialFile(88)='../input/input_ocmip/seawifs_chl_p78.bin',
(PID.TID 0000.0001) ># tracer 89 - PHY68
(PID.TID 0000.0001) > PTRACERS_names(89)='Phy68',
(PID.TID 0000.0001) > PTRACERS_units(89)='mmol P/m^3'
(PID.TID 0000.0001) > PTRACERS_advScheme(89)=33,
(PID.TID 0000.0001) > PTRACERS_diffKh(89)=0.E3,
(PID.TID 0000.0001) > PTRACERS_diffKr(89)=1.E-5,
(PID.TID 0000.0001) > PTRACERS_useGMRedi(89)=.TRUE. ,
(PID.TID 0000.0001) > PTRACERS_useKPP(89)=.FALSE. ,
(PID.TID 0000.0001) > PTRACERS_initialFile(89)='../input/input_ocmip/seawifs_chl_p78.bin',
(PID.TID 0000.0001) ># tracer 90 - PHY69
(PID.TID 0000.0001) > PTRACERS_names(90)='Phy69',
(PID.TID 0000.0001) > PTRACERS_units(90)='mmol P/m^3'
(PID.TID 0000.0001) > PTRACERS_advScheme(90)=33,
(PID.TID 0000.0001) > PTRACERS_diffKh(90)=0.E3,
(PID.TID 0000.0001) > PTRACERS_diffKr(90)=1.E-5,
(PID.TID 0000.0001) > PTRACERS_useGMRedi(90)=.TRUE. ,
(PID.TID 0000.0001) > PTRACERS_useKPP(90)=.FALSE. ,
(PID.TID 0000.0001) > PTRACERS_initialFile(90)='../input/input_ocmip/seawifs_chl_p78.bin',
(PID.TID 0000.0001) ># tracer 91 - PHY70
(PID.TID 0000.0001) > PTRACERS_names(91)='Phy70',
(PID.TID 0000.0001) > PTRACERS_units(91)='mmol P/m^3'
(PID.TID 0000.0001) > PTRACERS_advScheme(91)=33,
(PID.TID 0000.0001) > PTRACERS_diffKh(91)=0.E3,
(PID.TID 0000.0001) > PTRACERS_diffKr(91)=1.E-5,
(PID.TID 0000.0001) > PTRACERS_useGMRedi(91)=.TRUE. ,
(PID.TID 0000.0001) > PTRACERS_useKPP(91)=.FALSE. ,
(PID.TID 0000.0001) > PTRACERS_initialFile(91)='../input/input_ocmip/seawifs_chl_p78.bin',
(PID.TID 0000.0001) ># tracer 92 - PHY71
(PID.TID 0000.0001) > PTRACERS_names(92)='Phy71',
(PID.TID 0000.0001) > PTRACERS_units(92)='mmol P/m^3'
(PID.TID 0000.0001) > PTRACERS_advScheme(92)=33,
(PID.TID 0000.0001) > PTRACERS_diffKh(92)=0.E3,
(PID.TID 0000.0001) > PTRACERS_diffKr(92)=1.E-5,
(PID.TID 0000.0001) > PTRACERS_useGMRedi(92)=.TRUE. ,
(PID.TID 0000.0001) > PTRACERS_useKPP(92)=.FALSE. ,
(PID.TID 0000.0001) > PTRACERS_initialFile(92)='../input/input_ocmip/seawifs_chl_p78.bin',
(PID.TID 0000.0001) ># tracer 93 - PHY72
(PID.TID 0000.0001) > PTRACERS_names(93)='Phy72',
(PID.TID 0000.0001) > PTRACERS_units(93)='mmol P/m^3'
(PID.TID 0000.0001) > PTRACERS_advScheme(93)=33,
(PID.TID 0000.0001) > PTRACERS_diffKh(93)=0.E3,
(PID.TID 0000.0001) > PTRACERS_diffKr(93)=1.E-5,
(PID.TID 0000.0001) > PTRACERS_useGMRedi(93)=.TRUE. ,
(PID.TID 0000.0001) > PTRACERS_useKPP(93)=.FALSE. ,
(PID.TID 0000.0001) > PTRACERS_initialFile(93)='../input/input_ocmip/seawifs_chl_p78.bin',
(PID.TID 0000.0001) ># tracer 94 - PHY73
(PID.TID 0000.0001) > PTRACERS_names(94)='Phy73',
(PID.TID 0000.0001) > PTRACERS_units(94)='mmol P/m^3'
(PID.TID 0000.0001) > PTRACERS_advScheme(94)=33,
(PID.TID 0000.0001) > PTRACERS_diffKh(94)=0.E3,
(PID.TID 0000.0001) > PTRACERS_diffKr(94)=1.E-5,
(PID.TID 0000.0001) > PTRACERS_useGMRedi(94)=.TRUE. ,
(PID.TID 0000.0001) > PTRACERS_useKPP(94)=.FALSE. ,
(PID.TID 0000.0001) > PTRACERS_initialFile(94)='../input/input_ocmip/seawifs_chl_p78.bin',
(PID.TID 0000.0001) ># tracer 95 - PHY74
(PID.TID 0000.0001) > PTRACERS_names(95)='Phy74',
(PID.TID 0000.0001) > PTRACERS_units(95)='mmol P/m^3'
(PID.TID 0000.0001) > PTRACERS_advScheme(95)=33,
(PID.TID 0000.0001) > PTRACERS_diffKh(95)=0.E3,
(PID.TID 0000.0001) > PTRACERS_diffKr(95)=1.E-5,
(PID.TID 0000.0001) > PTRACERS_useGMRedi(95)=.TRUE. ,
(PID.TID 0000.0001) > PTRACERS_useKPP(95)=.FALSE. ,
(PID.TID 0000.0001) > PTRACERS_initialFile(95)='../input/input_ocmip/seawifs_chl_p78.bin',
(PID.TID 0000.0001) ># tracer 96 - PHY75
(PID.TID 0000.0001) > PTRACERS_names(96)='Phy75',
(PID.TID 0000.0001) > PTRACERS_units(96)='mmol P/m^3'
(PID.TID 0000.0001) > PTRACERS_advScheme(96)=33,
(PID.TID 0000.0001) > PTRACERS_diffKh(96)=0.E3,
(PID.TID 0000.0001) > PTRACERS_diffKr(96)=1.E-5,
(PID.TID 0000.0001) > PTRACERS_useGMRedi(96)=.TRUE. ,
(PID.TID 0000.0001) > PTRACERS_useKPP(96)=.FALSE. ,
(PID.TID 0000.0001) > PTRACERS_initialFile(96)='../input/input_ocmip/seawifs_chl_p78.bin',
(PID.TID 0000.0001) ># tracer 97 - PHY76
(PID.TID 0000.0001) > PTRACERS_names(97)='Phy76',
(PID.TID 0000.0001) > PTRACERS_units(97)='mmol P/m^3'
(PID.TID 0000.0001) > PTRACERS_advScheme(97)=33,
(PID.TID 0000.0001) > PTRACERS_diffKh(97)=0.E3,
(PID.TID 0000.0001) > PTRACERS_diffKr(97)=1.E-5,
(PID.TID 0000.0001) > PTRACERS_useGMRedi(97)=.TRUE. ,
(PID.TID 0000.0001) > PTRACERS_useKPP(97)=.FALSE. ,
(PID.TID 0000.0001) > PTRACERS_initialFile(97)='../input/input_ocmip/seawifs_chl_p78.bin',
(PID.TID 0000.0001) ># tracer 98 - PHY77
(PID.TID 0000.0001) > PTRACERS_names(98)='Phy77',
(PID.TID 0000.0001) > PTRACERS_units(98)='mmol P/m^3'
(PID.TID 0000.0001) > PTRACERS_advScheme(98)=33,
(PID.TID 0000.0001) > PTRACERS_diffKh(98)=0.E3,
(PID.TID 0000.0001) > PTRACERS_diffKr(98)=1.E-5,
(PID.TID 0000.0001) > PTRACERS_useGMRedi(98)=.TRUE. ,
(PID.TID 0000.0001) > PTRACERS_useKPP(98)=.FALSE. ,
(PID.TID 0000.0001) > PTRACERS_initialFile(98)='../input/input_ocmip/seawifs_chl_p78.bin',
(PID.TID 0000.0001) ># tracer 99 - PHY78
(PID.TID 0000.0001) > PTRACERS_names(99)='Phy78',
(PID.TID 0000.0001) > PTRACERS_units(99)='mmol P/m^3'
(PID.TID 0000.0001) > PTRACERS_advScheme(99)=33,
(PID.TID 0000.0001) > PTRACERS_diffKh(99)=0.E3,
(PID.TID 0000.0001) > PTRACERS_diffKr(99)=1.E-5,
(PID.TID 0000.0001) > PTRACERS_useGMRedi(99)=.TRUE. ,
(PID.TID 0000.0001) > PTRACERS_useKPP(99)=.FALSE. ,
(PID.TID 0000.0001) > PTRACERS_initialFile(99)='../input/input_ocmip/seawifs_chl_p78.bin',
(PID.TID 0000.0001) > /
(PID.TID 0000.0001) 
(PID.TID 0000.0001)  PTRACERS_READPARMS: finished reading data.ptracers
(PID.TID 0000.0001) // ===================================
(PID.TID 0000.0001) // PTRACERS parameters
(PID.TID 0000.0001) // ===================================
(PID.TID 0000.0001) PTRACERS_numInUse = /* number of tracers */
(PID.TID 0000.0001)                      99
(PID.TID 0000.0001)     ;
(PID.TID 0000.0001) PTRACERS_Iter0 = /* timestep number when tracers are initialized */
(PID.TID 0000.0001)                 5644800
(PID.TID 0000.0001)     ;
(PID.TID 0000.0001) PTRACERS_addSrelax2EmP =/* add Salt relaxation to EmP */
(PID.TID 0000.0001)                   F
(PID.TID 0000.0001)     ;
(PID.TID 0000.0001) PTRACERS_dTLev =   /* Ptracer timestep ( s ) */
(PID.TID 0000.0001)    15 @  4.320000000000000E+04              /* K =  1: 15 */
(PID.TID 0000.0001)     ;
(PID.TID 0000.0001) PTRACERS_dumpFreq = /* Frequency^-1 for snapshot output (s) */
(PID.TID 0000.0001)                 3.110400000000000E+07
(PID.TID 0000.0001)     ;
(PID.TID 0000.0001) PTRACERS_taveFreq = /* Frequency^-1 for time-Aver. output (s) */
(PID.TID 0000.0001)                 2.592000000000000E+06
(PID.TID 0000.0001)     ;
(PID.TID 0000.0001) PTRACERS_useRecords = /* all tracers in 1 file */
(PID.TID 0000.0001)                   F
(PID.TID 0000.0001)     ;
(PID.TID 0000.0001) PTRACERS_timeave_mnc = /* use MNC for Tave output */
(PID.TID 0000.0001)                   T
(PID.TID 0000.0001)     ;
(PID.TID 0000.0001) PTRACERS_snapshot_mnc = /* use MNC for snapshot output */
(PID.TID 0000.0001)                   T
(PID.TID 0000.0001)     ;
(PID.TID 0000.0001) PTRACERS_pickup_write_mnc = /* use MNC for writing pickups */
(PID.TID 0000.0001)                   F
(PID.TID 0000.0001)     ;
(PID.TID 0000.0001) PTRACERS_pickup_read_mnc = /* use MNC for reading pickups */
(PID.TID 0000.0001)                   F
(PID.TID 0000.0001)     ;
(PID.TID 0000.0001)  -----------------------------------
(PID.TID 0000.0001)  tracer number :    1
(PID.TID 0000.0001) PTRACERS_names = /* Tracer short name */
(PID.TID 0000.0001)               'PO4'
(PID.TID 0000.0001)     ;
(PID.TID 0000.0001) PTRACERS_long_names = /* Tracer long name */
(PID.TID 0000.0001)               ''
(PID.TID 0000.0001)     ;
(PID.TID 0000.0001) PTRACERS_ioLabel = /* tracer IO Label */
(PID.TID 0000.0001)               '01'
(PID.TID 0000.0001)     ;
(PID.TID 0000.0001) PTRACERS_advScheme = /* Advection Scheme */
(PID.TID 0000.0001)                      33
(PID.TID 0000.0001)     ;
(PID.TID 0000.0001) PTRACERS_ImplVertAdv = /* implicit vert. advection flag */
(PID.TID 0000.0001)                   F
(PID.TID 0000.0001)     ;
(PID.TID 0000.0001) PTRACERS_diffKh = /* Laplacian Diffusivity */
(PID.TID 0000.0001)                 0.000000000000000E+00
(PID.TID 0000.0001)     ;
(PID.TID 0000.0001) PTRACERS_diffK4 = /* Biharmonic Diffusivity */
(PID.TID 0000.0001)                 0.000000000000000E+00
(PID.TID 0000.0001)     ;
(PID.TID 0000.0001) PTRACERS_diffKrNr = /* Vertical Diffusivity */
(PID.TID 0000.0001)    15 @  1.000000000000000E-05              /* K =  1: 15 */
(PID.TID 0000.0001)     ;
(PID.TID 0000.0001) PTRACERS_useGMRedi = /* apply GM-Redi */
(PID.TID 0000.0001)                   T
(PID.TID 0000.0001)     ;
(PID.TID 0000.0001) PTRACERS_useDWNSLP = /* apply DOWN-SLOPE Flow */
(PID.TID 0000.0001)                   F
(PID.TID 0000.0001)     ;
(PID.TID 0000.0001) PTRACERS_useKPP = /* apply KPP scheme */
(PID.TID 0000.0001)                   F
(PID.TID 0000.0001)     ;
(PID.TID 0000.0001) PTRACERS_ref = /* Reference vertical profile */
(PID.TID 0000.0001)    15 @  0.000000000000000E+00              /* K =  1: 15 */
(PID.TID 0000.0001)     ;
(PID.TID 0000.0001) PTRACERS_EvPrRn =/* tracer conc. in Evap. & Rain */
(PID.TID 0000.0001)                 1.234567000000000E+05
(PID.TID 0000.0001)     ;
(PID.TID 0000.0001)  -----------------------------------
(PID.TID 0000.0001)  tracer number :    2
(PID.TID 0000.0001) PTRACERS_names = /* Tracer short name */
(PID.TID 0000.0001)               'NO3'
(PID.TID 0000.0001)     ;
(PID.TID 0000.0001) PTRACERS_long_names = /* Tracer long name */
(PID.TID 0000.0001)               ''
(PID.TID 0000.0001)     ;
(PID.TID 0000.0001) PTRACERS_ioLabel = /* tracer IO Label */
(PID.TID 0000.0001)               '02'
(PID.TID 0000.0001)     ;
(PID.TID 0000.0001) PTRACERS_advScheme = /* Advection Scheme */
(PID.TID 0000.0001)                      33
(PID.TID 0000.0001)     ;
(PID.TID 0000.0001) PTRACERS_ImplVertAdv = /* implicit vert. advection flag */
(PID.TID 0000.0001)                   F
(PID.TID 0000.0001)     ;
(PID.TID 0000.0001) PTRACERS_diffKh = /* Laplacian Diffusivity */
(PID.TID 0000.0001)                 0.000000000000000E+00
(PID.TID 0000.0001)     ;
(PID.TID 0000.0001) PTRACERS_diffK4 = /* Biharmonic Diffusivity */
(PID.TID 0000.0001)                 0.000000000000000E+00
(PID.TID 0000.0001)     ;
(PID.TID 0000.0001) PTRACERS_diffKrNr = /* Vertical Diffusivity */
(PID.TID 0000.0001)    15 @  1.000000000000000E-05              /* K =  1: 15 */
(PID.TID 0000.0001)     ;
(PID.TID 0000.0001) PTRACERS_useGMRedi = /* apply GM-Redi */
(PID.TID 0000.0001)                   T
(PID.TID 0000.0001)     ;
(PID.TID 0000.0001) PTRACERS_useDWNSLP = /* apply DOWN-SLOPE Flow */
(PID.TID 0000.0001)                   F
(PID.TID 0000.0001)     ;
(PID.TID 0000.0001) PTRACERS_useKPP = /* apply KPP scheme */
(PID.TID 0000.0001)                   F
(PID.TID 0000.0001)     ;
(PID.TID 0000.0001) PTRACERS_ref = /* Reference vertical profile */
(PID.TID 0000.0001)    15 @  0.000000000000000E+00              /* K =  1: 15 */
(PID.TID 0000.0001)     ;
(PID.TID 0000.0001) PTRACERS_EvPrRn =/* tracer conc. in Evap. & Rain */
(PID.TID 0000.0001)                 1.234567000000000E+05
(PID.TID 0000.0001)     ;
(PID.TID 0000.0001)  -----------------------------------
(PID.TID 0000.0001)  tracer number :    3
(PID.TID 0000.0001) PTRACERS_names = /* Tracer short name */
(PID.TID 0000.0001)               'FeT'
(PID.TID 0000.0001)     ;
(PID.TID 0000.0001) PTRACERS_long_names = /* Tracer long name */
(PID.TID 0000.0001)               ''
(PID.TID 0000.0001)     ;
(PID.TID 0000.0001) PTRACERS_ioLabel = /* tracer IO Label */
(PID.TID 0000.0001)               '03'
(PID.TID 0000.0001)     ;
(PID.TID 0000.0001) PTRACERS_advScheme = /* Advection Scheme */
(PID.TID 0000.0001)                      33
(PID.TID 0000.0001)     ;
(PID.TID 0000.0001) PTRACERS_ImplVertAdv = /* implicit vert. advection flag */
(PID.TID 0000.0001)                   F
(PID.TID 0000.0001)     ;
(PID.TID 0000.0001) PTRACERS_diffKh = /* Laplacian Diffusivity */
(PID.TID 0000.0001)                 0.000000000000000E+00
(PID.TID 0000.0001)     ;
(PID.TID 0000.0001) PTRACERS_diffK4 = /* Biharmonic Diffusivity */
(PID.TID 0000.0001)                 0.000000000000000E+00
(PID.TID 0000.0001)     ;
(PID.TID 0000.0001) PTRACERS_diffKrNr = /* Vertical Diffusivity */
(PID.TID 0000.0001)    15 @  1.000000000000000E-05              /* K =  1: 15 */
(PID.TID 0000.0001)     ;
(PID.TID 0000.0001) PTRACERS_useGMRedi = /* apply GM-Redi */
(PID.TID 0000.0001)                   T
(PID.TID 0000.0001)     ;
(PID.TID 0000.0001) PTRACERS_useDWNSLP = /* apply DOWN-SLOPE Flow */
(PID.TID 0000.0001)                   F
(PID.TID 0000.0001)     ;
(PID.TID 0000.0001) PTRACERS_useKPP = /* apply KPP scheme */
(PID.TID 0000.0001)                   F
(PID.TID 0000.0001)     ;
(PID.TID 0000.0001) PTRACERS_ref = /* Reference vertical profile */
(PID.TID 0000.0001)    15 @  0.000000000000000E+00              /* K =  1: 15 */
(PID.TID 0000.0001)     ;
(PID.TID 0000.0001) PTRACERS_EvPrRn =/* tracer conc. in Evap. & Rain */
(PID.TID 0000.0001)                 1.234567000000000E+05
(PID.TID 0000.0001)     ;
(PID.TID 0000.0001)  -----------------------------------
(PID.TID 0000.0001)  tracer number :    4
(PID.TID 0000.0001) PTRACERS_names = /* Tracer short name */
(PID.TID 0000.0001)               'SiO2'
(PID.TID 0000.0001)     ;
(PID.TID 0000.0001) PTRACERS_long_names = /* Tracer long name */
(PID.TID 0000.0001)               ''
(PID.TID 0000.0001)     ;
(PID.TID 0000.0001) PTRACERS_ioLabel = /* tracer IO Label */
(PID.TID 0000.0001)               '04'
(PID.TID 0000.0001)     ;
(PID.TID 0000.0001) PTRACERS_advScheme = /* Advection Scheme */
(PID.TID 0000.0001)                      33
(PID.TID 0000.0001)     ;
(PID.TID 0000.0001) PTRACERS_ImplVertAdv = /* implicit vert. advection flag */
(PID.TID 0000.0001)                   F
(PID.TID 0000.0001)     ;
(PID.TID 0000.0001) PTRACERS_diffKh = /* Laplacian Diffusivity */
(PID.TID 0000.0001)                 0.000000000000000E+00
(PID.TID 0000.0001)     ;
(PID.TID 0000.0001) PTRACERS_diffK4 = /* Biharmonic Diffusivity */
(PID.TID 0000.0001)                 0.000000000000000E+00
(PID.TID 0000.0001)     ;
(PID.TID 0000.0001) PTRACERS_diffKrNr = /* Vertical Diffusivity */
(PID.TID 0000.0001)    15 @  1.000000000000000E-05              /* K =  1: 15 */
(PID.TID 0000.0001)     ;
(PID.TID 0000.0001) PTRACERS_useGMRedi = /* apply GM-Redi */
(PID.TID 0000.0001)                   T
(PID.TID 0000.0001)     ;
(PID.TID 0000.0001) PTRACERS_useDWNSLP = /* apply DOWN-SLOPE Flow */
(PID.TID 0000.0001)                   F
(PID.TID 0000.0001)     ;
(PID.TID 0000.0001) PTRACERS_useKPP = /* apply KPP scheme */
(PID.TID 0000.0001)                   F
(PID.TID 0000.0001)     ;
(PID.TID 0000.0001) PTRACERS_ref = /* Reference vertical profile */
(PID.TID 0000.0001)    15 @  0.000000000000000E+00              /* K =  1: 15 */
(PID.TID 0000.0001)     ;
(PID.TID 0000.0001) PTRACERS_EvPrRn =/* tracer conc. in Evap. & Rain */
(PID.TID 0000.0001)                 1.234567000000000E+05
(PID.TID 0000.0001)     ;
(PID.TID 0000.0001)  -----------------------------------
(PID.TID 0000.0001)  tracer number :    5
(PID.TID 0000.0001) PTRACERS_names = /* Tracer short name */
(PID.TID 0000.0001)               'DOP'
(PID.TID 0000.0001)     ;
(PID.TID 0000.0001) PTRACERS_long_names = /* Tracer long name */
(PID.TID 0000.0001)               ''
(PID.TID 0000.0001)     ;
(PID.TID 0000.0001) PTRACERS_ioLabel = /* tracer IO Label */
(PID.TID 0000.0001)               '05'
(PID.TID 0000.0001)     ;
(PID.TID 0000.0001) PTRACERS_advScheme = /* Advection Scheme */
(PID.TID 0000.0001)                      33
(PID.TID 0000.0001)     ;
(PID.TID 0000.0001) PTRACERS_ImplVertAdv = /* implicit vert. advection flag */
(PID.TID 0000.0001)                   F
(PID.TID 0000.0001)     ;
(PID.TID 0000.0001) PTRACERS_diffKh = /* Laplacian Diffusivity */
(PID.TID 0000.0001)                 0.000000000000000E+00
(PID.TID 0000.0001)     ;
(PID.TID 0000.0001) PTRACERS_diffK4 = /* Biharmonic Diffusivity */
(PID.TID 0000.0001)                 0.000000000000000E+00
(PID.TID 0000.0001)     ;
(PID.TID 0000.0001) PTRACERS_diffKrNr = /* Vertical Diffusivity */
(PID.TID 0000.0001)    15 @  1.000000000000000E-05              /* K =  1: 15 */
(PID.TID 0000.0001)     ;
(PID.TID 0000.0001) PTRACERS_useGMRedi = /* apply GM-Redi */
(PID.TID 0000.0001)                   T
(PID.TID 0000.0001)     ;
(PID.TID 0000.0001) PTRACERS_useDWNSLP = /* apply DOWN-SLOPE Flow */
(PID.TID 0000.0001)                   F
(PID.TID 0000.0001)     ;
(PID.TID 0000.0001) PTRACERS_useKPP = /* apply KPP scheme */
(PID.TID 0000.0001)                   F
(PID.TID 0000.0001)     ;
(PID.TID 0000.0001) PTRACERS_ref = /* Reference vertical profile */
(PID.TID 0000.0001)    15 @  0.000000000000000E+00              /* K =  1: 15 */
(PID.TID 0000.0001)     ;
(PID.TID 0000.0001) PTRACERS_EvPrRn =/* tracer conc. in Evap. & Rain */
(PID.TID 0000.0001)                 1.234567000000000E+05
(PID.TID 0000.0001)     ;
(PID.TID 0000.0001)  -----------------------------------
(PID.TID 0000.0001)  tracer number :    6
(PID.TID 0000.0001) PTRACERS_names = /* Tracer short name */
(PID.TID 0000.0001)               'DON'
(PID.TID 0000.0001)     ;
(PID.TID 0000.0001) PTRACERS_long_names = /* Tracer long name */
(PID.TID 0000.0001)               ''
(PID.TID 0000.0001)     ;
(PID.TID 0000.0001) PTRACERS_ioLabel = /* tracer IO Label */
(PID.TID 0000.0001)               '06'
(PID.TID 0000.0001)     ;
(PID.TID 0000.0001) PTRACERS_advScheme = /* Advection Scheme */
(PID.TID 0000.0001)                      33
(PID.TID 0000.0001)     ;
(PID.TID 0000.0001) PTRACERS_ImplVertAdv = /* implicit vert. advection flag */
(PID.TID 0000.0001)                   F
(PID.TID 0000.0001)     ;
(PID.TID 0000.0001) PTRACERS_diffKh = /* Laplacian Diffusivity */
(PID.TID 0000.0001)                 0.000000000000000E+00
(PID.TID 0000.0001)     ;
(PID.TID 0000.0001) PTRACERS_diffK4 = /* Biharmonic Diffusivity */
(PID.TID 0000.0001)                 0.000000000000000E+00
(PID.TID 0000.0001)     ;
(PID.TID 0000.0001) PTRACERS_diffKrNr = /* Vertical Diffusivity */
(PID.TID 0000.0001)    15 @  1.000000000000000E-05              /* K =  1: 15 */
(PID.TID 0000.0001)     ;
(PID.TID 0000.0001) PTRACERS_useGMRedi = /* apply GM-Redi */
(PID.TID 0000.0001)                   T
(PID.TID 0000.0001)     ;
(PID.TID 0000.0001) PTRACERS_useDWNSLP = /* apply DOWN-SLOPE Flow */
(PID.TID 0000.0001)                   F
(PID.TID 0000.0001)     ;
(PID.TID 0000.0001) PTRACERS_useKPP = /* apply KPP scheme */
(PID.TID 0000.0001)                   F
(PID.TID 0000.0001)     ;
(PID.TID 0000.0001) PTRACERS_ref = /* Reference vertical profile */
(PID.TID 0000.0001)    15 @  0.000000000000000E+00              /* K =  1: 15 */
(PID.TID 0000.0001)     ;
(PID.TID 0000.0001) PTRACERS_EvPrRn =/* tracer conc. in Evap. & Rain */
(PID.TID 0000.0001)                 1.234567000000000E+05
(PID.TID 0000.0001)     ;
(PID.TID 0000.0001)  -----------------------------------
(PID.TID 0000.0001)  tracer number :    7
(PID.TID 0000.0001) PTRACERS_names = /* Tracer short name */
(PID.TID 0000.0001)               'DOFe'
(PID.TID 0000.0001)     ;
(PID.TID 0000.0001) PTRACERS_long_names = /* Tracer long name */
(PID.TID 0000.0001)               ''
(PID.TID 0000.0001)     ;
(PID.TID 0000.0001) PTRACERS_ioLabel = /* tracer IO Label */
(PID.TID 0000.0001)               '07'
(PID.TID 0000.0001)     ;
(PID.TID 0000.0001) PTRACERS_advScheme = /* Advection Scheme */
(PID.TID 0000.0001)                      33
(PID.TID 0000.0001)     ;
(PID.TID 0000.0001) PTRACERS_ImplVertAdv = /* implicit vert. advection flag */
(PID.TID 0000.0001)                   F
(PID.TID 0000.0001)     ;
(PID.TID 0000.0001) PTRACERS_diffKh = /* Laplacian Diffusivity */
(PID.TID 0000.0001)                 0.000000000000000E+00
(PID.TID 0000.0001)     ;
(PID.TID 0000.0001) PTRACERS_diffK4 = /* Biharmonic Diffusivity */
(PID.TID 0000.0001)                 0.000000000000000E+00
(PID.TID 0000.0001)     ;
(PID.TID 0000.0001) PTRACERS_diffKrNr = /* Vertical Diffusivity */
(PID.TID 0000.0001)    15 @  1.000000000000000E-05              /* K =  1: 15 */
(PID.TID 0000.0001)     ;
(PID.TID 0000.0001) PTRACERS_useGMRedi = /* apply GM-Redi */
(PID.TID 0000.0001)                   T
(PID.TID 0000.0001)     ;
(PID.TID 0000.0001) PTRACERS_useDWNSLP = /* apply DOWN-SLOPE Flow */
(PID.TID 0000.0001)                   F
(PID.TID 0000.0001)     ;
(PID.TID 0000.0001) PTRACERS_useKPP = /* apply KPP scheme */
(PID.TID 0000.0001)                   F
(PID.TID 0000.0001)     ;
(PID.TID 0000.0001) PTRACERS_ref = /* Reference vertical profile */
(PID.TID 0000.0001)    15 @  0.000000000000000E+00              /* K =  1: 15 */
(PID.TID 0000.0001)     ;
(PID.TID 0000.0001) PTRACERS_EvPrRn =/* tracer conc. in Evap. & Rain */
(PID.TID 0000.0001)                 1.234567000000000E+05
(PID.TID 0000.0001)     ;
(PID.TID 0000.0001)  -----------------------------------
(PID.TID 0000.0001)  tracer number :    8
(PID.TID 0000.0001) PTRACERS_names = /* Tracer short name */
(PID.TID 0000.0001)               'ZOO1P'
(PID.TID 0000.0001)     ;
(PID.TID 0000.0001) PTRACERS_long_names = /* Tracer long name */
(PID.TID 0000.0001)               ''
(PID.TID 0000.0001)     ;
(PID.TID 0000.0001) PTRACERS_ioLabel = /* tracer IO Label */
(PID.TID 0000.0001)               '08'
(PID.TID 0000.0001)     ;
(PID.TID 0000.0001) PTRACERS_advScheme = /* Advection Scheme */
(PID.TID 0000.0001)                      33
(PID.TID 0000.0001)     ;
(PID.TID 0000.0001) PTRACERS_ImplVertAdv = /* implicit vert. advection flag */
(PID.TID 0000.0001)                   F
(PID.TID 0000.0001)     ;
(PID.TID 0000.0001) PTRACERS_diffKh = /* Laplacian Diffusivity */
(PID.TID 0000.0001)                 0.000000000000000E+00
(PID.TID 0000.0001)     ;
(PID.TID 0000.0001) PTRACERS_diffK4 = /* Biharmonic Diffusivity */
(PID.TID 0000.0001)                 0.000000000000000E+00
(PID.TID 0000.0001)     ;
(PID.TID 0000.0001) PTRACERS_diffKrNr = /* Vertical Diffusivity */
(PID.TID 0000.0001)    15 @  1.000000000000000E-05              /* K =  1: 15 */
(PID.TID 0000.0001)     ;
(PID.TID 0000.0001) PTRACERS_useGMRedi = /* apply GM-Redi */
(PID.TID 0000.0001)                   T
(PID.TID 0000.0001)     ;
(PID.TID 0000.0001) PTRACERS_useDWNSLP = /* apply DOWN-SLOPE Flow */
(PID.TID 0000.0001)                   F
(PID.TID 0000.0001)     ;
(PID.TID 0000.0001) PTRACERS_useKPP = /* apply KPP scheme */
(PID.TID 0000.0001)                   F
(PID.TID 0000.0001)     ;
(PID.TID 0000.0001) PTRACERS_ref = /* Reference vertical profile */
(PID.TID 0000.0001)    15 @  0.000000000000000E+00              /* K =  1: 15 */
(PID.TID 0000.0001)     ;
(PID.TID 0000.0001) PTRACERS_EvPrRn =/* tracer conc. in Evap. & Rain */
(PID.TID 0000.0001)                 1.234567000000000E+05
(PID.TID 0000.0001)     ;
(PID.TID 0000.0001)  -----------------------------------
(PID.TID 0000.0001)  tracer number :    9
(PID.TID 0000.0001) PTRACERS_names = /* Tracer short name */
(PID.TID 0000.0001)               'ZOO1N'
(PID.TID 0000.0001)     ;
(PID.TID 0000.0001) PTRACERS_long_names = /* Tracer long name */
(PID.TID 0000.0001)               ''
(PID.TID 0000.0001)     ;
(PID.TID 0000.0001) PTRACERS_ioLabel = /* tracer IO Label */
(PID.TID 0000.0001)               '09'
(PID.TID 0000.0001)     ;
(PID.TID 0000.0001) PTRACERS_advScheme = /* Advection Scheme */
(PID.TID 0000.0001)                      33
(PID.TID 0000.0001)     ;
(PID.TID 0000.0001) PTRACERS_ImplVertAdv = /* implicit vert. advection flag */
(PID.TID 0000.0001)                   F
(PID.TID 0000.0001)     ;
(PID.TID 0000.0001) PTRACERS_diffKh = /* Laplacian Diffusivity */
(PID.TID 0000.0001)                 0.000000000000000E+00
(PID.TID 0000.0001)     ;
(PID.TID 0000.0001) PTRACERS_diffK4 = /* Biharmonic Diffusivity */
(PID.TID 0000.0001)                 0.000000000000000E+00
(PID.TID 0000.0001)     ;
(PID.TID 0000.0001) PTRACERS_diffKrNr = /* Vertical Diffusivity */
(PID.TID 0000.0001)    15 @  1.000000000000000E-05              /* K =  1: 15 */
(PID.TID 0000.0001)     ;
(PID.TID 0000.0001) PTRACERS_useGMRedi = /* apply GM-Redi */
(PID.TID 0000.0001)                   T
(PID.TID 0000.0001)     ;
(PID.TID 0000.0001) PTRACERS_useDWNSLP = /* apply DOWN-SLOPE Flow */
(PID.TID 0000.0001)                   F
(PID.TID 0000.0001)     ;
(PID.TID 0000.0001) PTRACERS_useKPP = /* apply KPP scheme */
(PID.TID 0000.0001)                   F
(PID.TID 0000.0001)     ;
(PID.TID 0000.0001) PTRACERS_ref = /* Reference vertical profile */
(PID.TID 0000.0001)    15 @  0.000000000000000E+00              /* K =  1: 15 */
(PID.TID 0000.0001)     ;
(PID.TID 0000.0001) PTRACERS_EvPrRn =/* tracer conc. in Evap. & Rain */
(PID.TID 0000.0001)                 1.234567000000000E+05
(PID.TID 0000.0001)     ;
(PID.TID 0000.0001)  -----------------------------------
(PID.TID 0000.0001)  tracer number :   10
(PID.TID 0000.0001) PTRACERS_names = /* Tracer short name */
(PID.TID 0000.0001)               'ZOO1Fe'
(PID.TID 0000.0001)     ;
(PID.TID 0000.0001) PTRACERS_long_names = /* Tracer long name */
(PID.TID 0000.0001)               ''
(PID.TID 0000.0001)     ;
(PID.TID 0000.0001) PTRACERS_ioLabel = /* tracer IO Label */
(PID.TID 0000.0001)               '10'
(PID.TID 0000.0001)     ;
(PID.TID 0000.0001) PTRACERS_advScheme = /* Advection Scheme */
(PID.TID 0000.0001)                      33
(PID.TID 0000.0001)     ;
(PID.TID 0000.0001) PTRACERS_ImplVertAdv = /* implicit vert. advection flag */
(PID.TID 0000.0001)                   F
(PID.TID 0000.0001)     ;
(PID.TID 0000.0001) PTRACERS_diffKh = /* Laplacian Diffusivity */
(PID.TID 0000.0001)                 0.000000000000000E+00
(PID.TID 0000.0001)     ;
(PID.TID 0000.0001) PTRACERS_diffK4 = /* Biharmonic Diffusivity */
(PID.TID 0000.0001)                 0.000000000000000E+00
(PID.TID 0000.0001)     ;
(PID.TID 0000.0001) PTRACERS_diffKrNr = /* Vertical Diffusivity */
(PID.TID 0000.0001)    15 @  1.000000000000000E-05              /* K =  1: 15 */
(PID.TID 0000.0001)     ;
(PID.TID 0000.0001) PTRACERS_useGMRedi = /* apply GM-Redi */
(PID.TID 0000.0001)                   T
(PID.TID 0000.0001)     ;
(PID.TID 0000.0001) PTRACERS_useDWNSLP = /* apply DOWN-SLOPE Flow */
(PID.TID 0000.0001)                   F
(PID.TID 0000.0001)     ;
(PID.TID 0000.0001) PTRACERS_useKPP = /* apply KPP scheme */
(PID.TID 0000.0001)                   F
(PID.TID 0000.0001)     ;
(PID.TID 0000.0001) PTRACERS_ref = /* Reference vertical profile */
(PID.TID 0000.0001)    15 @  0.000000000000000E+00              /* K =  1: 15 */
(PID.TID 0000.0001)     ;
(PID.TID 0000.0001) PTRACERS_EvPrRn =/* tracer conc. in Evap. & Rain */
(PID.TID 0000.0001)                 1.234567000000000E+05
(PID.TID 0000.0001)     ;
(PID.TID 0000.0001)  -----------------------------------
(PID.TID 0000.0001)  tracer number :   11
(PID.TID 0000.0001) PTRACERS_names = /* Tracer short name */
(PID.TID 0000.0001)               'ZOO1Si'
(PID.TID 0000.0001)     ;
(PID.TID 0000.0001) PTRACERS_long_names = /* Tracer long name */
(PID.TID 0000.0001)               ''
(PID.TID 0000.0001)     ;
(PID.TID 0000.0001) PTRACERS_ioLabel = /* tracer IO Label */
(PID.TID 0000.0001)               '11'
(PID.TID 0000.0001)     ;
(PID.TID 0000.0001) PTRACERS_advScheme = /* Advection Scheme */
(PID.TID 0000.0001)                      33
(PID.TID 0000.0001)     ;
(PID.TID 0000.0001) PTRACERS_ImplVertAdv = /* implicit vert. advection flag */
(PID.TID 0000.0001)                   F
(PID.TID 0000.0001)     ;
(PID.TID 0000.0001) PTRACERS_diffKh = /* Laplacian Diffusivity */
(PID.TID 0000.0001)                 0.000000000000000E+00
(PID.TID 0000.0001)     ;
(PID.TID 0000.0001) PTRACERS_diffK4 = /* Biharmonic Diffusivity */
(PID.TID 0000.0001)                 0.000000000000000E+00
(PID.TID 0000.0001)     ;
(PID.TID 0000.0001) PTRACERS_diffKrNr = /* Vertical Diffusivity */
(PID.TID 0000.0001)    15 @  1.000000000000000E-05              /* K =  1: 15 */
(PID.TID 0000.0001)     ;
(PID.TID 0000.0001) PTRACERS_useGMRedi = /* apply GM-Redi */
(PID.TID 0000.0001)                   T
(PID.TID 0000.0001)     ;
(PID.TID 0000.0001) PTRACERS_useDWNSLP = /* apply DOWN-SLOPE Flow */
(PID.TID 0000.0001)                   F
(PID.TID 0000.0001)     ;
(PID.TID 0000.0001) PTRACERS_useKPP = /* apply KPP scheme */
(PID.TID 0000.0001)                   F
(PID.TID 0000.0001)     ;
(PID.TID 0000.0001) PTRACERS_ref = /* Reference vertical profile */
(PID.TID 0000.0001)    15 @  0.000000000000000E+00              /* K =  1: 15 */
(PID.TID 0000.0001)     ;
(PID.TID 0000.0001) PTRACERS_EvPrRn =/* tracer conc. in Evap. & Rain */
(PID.TID 0000.0001)                 1.234567000000000E+05
(PID.TID 0000.0001)     ;
(PID.TID 0000.0001)  -----------------------------------
(PID.TID 0000.0001)  tracer number :   12
(PID.TID 0000.0001) PTRACERS_names = /* Tracer short name */
(PID.TID 0000.0001)               'ZOO2P'
(PID.TID 0000.0001)     ;
(PID.TID 0000.0001) PTRACERS_long_names = /* Tracer long name */
(PID.TID 0000.0001)               ''
(PID.TID 0000.0001)     ;
(PID.TID 0000.0001) PTRACERS_ioLabel = /* tracer IO Label */
(PID.TID 0000.0001)               '12'
(PID.TID 0000.0001)     ;
(PID.TID 0000.0001) PTRACERS_advScheme = /* Advection Scheme */
(PID.TID 0000.0001)                      33
(PID.TID 0000.0001)     ;
(PID.TID 0000.0001) PTRACERS_ImplVertAdv = /* implicit vert. advection flag */
(PID.TID 0000.0001)                   F
(PID.TID 0000.0001)     ;
(PID.TID 0000.0001) PTRACERS_diffKh = /* Laplacian Diffusivity */
(PID.TID 0000.0001)                 0.000000000000000E+00
(PID.TID 0000.0001)     ;
(PID.TID 0000.0001) PTRACERS_diffK4 = /* Biharmonic Diffusivity */
(PID.TID 0000.0001)                 0.000000000000000E+00
(PID.TID 0000.0001)     ;
(PID.TID 0000.0001) PTRACERS_diffKrNr = /* Vertical Diffusivity */
(PID.TID 0000.0001)    15 @  1.000000000000000E-05              /* K =  1: 15 */
(PID.TID 0000.0001)     ;
(PID.TID 0000.0001) PTRACERS_useGMRedi = /* apply GM-Redi */
(PID.TID 0000.0001)                   T
(PID.TID 0000.0001)     ;
(PID.TID 0000.0001) PTRACERS_useDWNSLP = /* apply DOWN-SLOPE Flow */
(PID.TID 0000.0001)                   F
(PID.TID 0000.0001)     ;
(PID.TID 0000.0001) PTRACERS_useKPP = /* apply KPP scheme */
(PID.TID 0000.0001)                   F
(PID.TID 0000.0001)     ;
(PID.TID 0000.0001) PTRACERS_ref = /* Reference vertical profile */
(PID.TID 0000.0001)    15 @  0.000000000000000E+00              /* K =  1: 15 */
(PID.TID 0000.0001)     ;
(PID.TID 0000.0001) PTRACERS_EvPrRn =/* tracer conc. in Evap. & Rain */
(PID.TID 0000.0001)                 1.234567000000000E+05
(PID.TID 0000.0001)     ;
(PID.TID 0000.0001)  -----------------------------------
(PID.TID 0000.0001)  tracer number :   13
(PID.TID 0000.0001) PTRACERS_names = /* Tracer short name */
(PID.TID 0000.0001)               'ZOO2N'
(PID.TID 0000.0001)     ;
(PID.TID 0000.0001) PTRACERS_long_names = /* Tracer long name */
(PID.TID 0000.0001)               ''
(PID.TID 0000.0001)     ;
(PID.TID 0000.0001) PTRACERS_ioLabel = /* tracer IO Label */
(PID.TID 0000.0001)               '13'
(PID.TID 0000.0001)     ;
(PID.TID 0000.0001) PTRACERS_advScheme = /* Advection Scheme */
(PID.TID 0000.0001)                      33
(PID.TID 0000.0001)     ;
(PID.TID 0000.0001) PTRACERS_ImplVertAdv = /* implicit vert. advection flag */
(PID.TID 0000.0001)                   F
(PID.TID 0000.0001)     ;
(PID.TID 0000.0001) PTRACERS_diffKh = /* Laplacian Diffusivity */
(PID.TID 0000.0001)                 0.000000000000000E+00
(PID.TID 0000.0001)     ;
(PID.TID 0000.0001) PTRACERS_diffK4 = /* Biharmonic Diffusivity */
(PID.TID 0000.0001)                 0.000000000000000E+00
(PID.TID 0000.0001)     ;
(PID.TID 0000.0001) PTRACERS_diffKrNr = /* Vertical Diffusivity */
(PID.TID 0000.0001)    15 @  1.000000000000000E-05              /* K =  1: 15 */
(PID.TID 0000.0001)     ;
(PID.TID 0000.0001) PTRACERS_useGMRedi = /* apply GM-Redi */
(PID.TID 0000.0001)                   T
(PID.TID 0000.0001)     ;
(PID.TID 0000.0001) PTRACERS_useDWNSLP = /* apply DOWN-SLOPE Flow */
(PID.TID 0000.0001)                   F
(PID.TID 0000.0001)     ;
(PID.TID 0000.0001) PTRACERS_useKPP = /* apply KPP scheme */
(PID.TID 0000.0001)                   F
(PID.TID 0000.0001)     ;
(PID.TID 0000.0001) PTRACERS_ref = /* Reference vertical profile */
(PID.TID 0000.0001)    15 @  0.000000000000000E+00              /* K =  1: 15 */
(PID.TID 0000.0001)     ;
(PID.TID 0000.0001) PTRACERS_EvPrRn =/* tracer conc. in Evap. & Rain */
(PID.TID 0000.0001)                 1.234567000000000E+05
(PID.TID 0000.0001)     ;
(PID.TID 0000.0001)  -----------------------------------
(PID.TID 0000.0001)  tracer number :   14
(PID.TID 0000.0001) PTRACERS_names = /* Tracer short name */
(PID.TID 0000.0001)               'ZOO2Fe'
(PID.TID 0000.0001)     ;
(PID.TID 0000.0001) PTRACERS_long_names = /* Tracer long name */
(PID.TID 0000.0001)               ''
(PID.TID 0000.0001)     ;
(PID.TID 0000.0001) PTRACERS_ioLabel = /* tracer IO Label */
(PID.TID 0000.0001)               '14'
(PID.TID 0000.0001)     ;
(PID.TID 0000.0001) PTRACERS_advScheme = /* Advection Scheme */
(PID.TID 0000.0001)                      33
(PID.TID 0000.0001)     ;
(PID.TID 0000.0001) PTRACERS_ImplVertAdv = /* implicit vert. advection flag */
(PID.TID 0000.0001)                   F
(PID.TID 0000.0001)     ;
(PID.TID 0000.0001) PTRACERS_diffKh = /* Laplacian Diffusivity */
(PID.TID 0000.0001)                 0.000000000000000E+00
(PID.TID 0000.0001)     ;
(PID.TID 0000.0001) PTRACERS_diffK4 = /* Biharmonic Diffusivity */
(PID.TID 0000.0001)                 0.000000000000000E+00
(PID.TID 0000.0001)     ;
(PID.TID 0000.0001) PTRACERS_diffKrNr = /* Vertical Diffusivity */
(PID.TID 0000.0001)    15 @  1.000000000000000E-05              /* K =  1: 15 */
(PID.TID 0000.0001)     ;
(PID.TID 0000.0001) PTRACERS_useGMRedi = /* apply GM-Redi */
(PID.TID 0000.0001)                   T
(PID.TID 0000.0001)     ;
(PID.TID 0000.0001) PTRACERS_useDWNSLP = /* apply DOWN-SLOPE Flow */
(PID.TID 0000.0001)                   F
(PID.TID 0000.0001)     ;
(PID.TID 0000.0001) PTRACERS_useKPP = /* apply KPP scheme */
(PID.TID 0000.0001)                   F
(PID.TID 0000.0001)     ;
(PID.TID 0000.0001) PTRACERS_ref = /* Reference vertical profile */
(PID.TID 0000.0001)    15 @  0.000000000000000E+00              /* K =  1: 15 */
(PID.TID 0000.0001)     ;
(PID.TID 0000.0001) PTRACERS_EvPrRn =/* tracer conc. in Evap. & Rain */
(PID.TID 0000.0001)                 1.234567000000000E+05
(PID.TID 0000.0001)     ;
(PID.TID 0000.0001)  -----------------------------------
(PID.TID 0000.0001)  tracer number :   15
(PID.TID 0000.0001) PTRACERS_names = /* Tracer short name */
(PID.TID 0000.0001)               'ZOO2Si'
(PID.TID 0000.0001)     ;
(PID.TID 0000.0001) PTRACERS_long_names = /* Tracer long name */
(PID.TID 0000.0001)               ''
(PID.TID 0000.0001)     ;
(PID.TID 0000.0001) PTRACERS_ioLabel = /* tracer IO Label */
(PID.TID 0000.0001)               '15'
(PID.TID 0000.0001)     ;
(PID.TID 0000.0001) PTRACERS_advScheme = /* Advection Scheme */
(PID.TID 0000.0001)                      33
(PID.TID 0000.0001)     ;
(PID.TID 0000.0001) PTRACERS_ImplVertAdv = /* implicit vert. advection flag */
(PID.TID 0000.0001)                   F
(PID.TID 0000.0001)     ;
(PID.TID 0000.0001) PTRACERS_diffKh = /* Laplacian Diffusivity */
(PID.TID 0000.0001)                 0.000000000000000E+00
(PID.TID 0000.0001)     ;
(PID.TID 0000.0001) PTRACERS_diffK4 = /* Biharmonic Diffusivity */
(PID.TID 0000.0001)                 0.000000000000000E+00
(PID.TID 0000.0001)     ;
(PID.TID 0000.0001) PTRACERS_diffKrNr = /* Vertical Diffusivity */
(PID.TID 0000.0001)    15 @  1.000000000000000E-05              /* K =  1: 15 */
(PID.TID 0000.0001)     ;
(PID.TID 0000.0001) PTRACERS_useGMRedi = /* apply GM-Redi */
(PID.TID 0000.0001)                   T
(PID.TID 0000.0001)     ;
(PID.TID 0000.0001) PTRACERS_useDWNSLP = /* apply DOWN-SLOPE Flow */
(PID.TID 0000.0001)                   F
(PID.TID 0000.0001)     ;
(PID.TID 0000.0001) PTRACERS_useKPP = /* apply KPP scheme */
(PID.TID 0000.0001)                   F
(PID.TID 0000.0001)     ;
(PID.TID 0000.0001) PTRACERS_ref = /* Reference vertical profile */
(PID.TID 0000.0001)    15 @  0.000000000000000E+00              /* K =  1: 15 */
(PID.TID 0000.0001)     ;
(PID.TID 0000.0001) PTRACERS_EvPrRn =/* tracer conc. in Evap. & Rain */
(PID.TID 0000.0001)                 1.234567000000000E+05
(PID.TID 0000.0001)     ;
(PID.TID 0000.0001)  -----------------------------------
(PID.TID 0000.0001)  tracer number :   16
(PID.TID 0000.0001) PTRACERS_names = /* Tracer short name */
(PID.TID 0000.0001)               'POP'
(PID.TID 0000.0001)     ;
(PID.TID 0000.0001) PTRACERS_long_names = /* Tracer long name */
(PID.TID 0000.0001)               ''
(PID.TID 0000.0001)     ;
(PID.TID 0000.0001) PTRACERS_ioLabel = /* tracer IO Label */
(PID.TID 0000.0001)               '16'
(PID.TID 0000.0001)     ;
(PID.TID 0000.0001) PTRACERS_advScheme = /* Advection Scheme */
(PID.TID 0000.0001)                      33
(PID.TID 0000.0001)     ;
(PID.TID 0000.0001) PTRACERS_ImplVertAdv = /* implicit vert. advection flag */
(PID.TID 0000.0001)                   F
(PID.TID 0000.0001)     ;
(PID.TID 0000.0001) PTRACERS_diffKh = /* Laplacian Diffusivity */
(PID.TID 0000.0001)                 0.000000000000000E+00
(PID.TID 0000.0001)     ;
(PID.TID 0000.0001) PTRACERS_diffK4 = /* Biharmonic Diffusivity */
(PID.TID 0000.0001)                 0.000000000000000E+00
(PID.TID 0000.0001)     ;
(PID.TID 0000.0001) PTRACERS_diffKrNr = /* Vertical Diffusivity */
(PID.TID 0000.0001)    15 @  1.000000000000000E-05              /* K =  1: 15 */
(PID.TID 0000.0001)     ;
(PID.TID 0000.0001) PTRACERS_useGMRedi = /* apply GM-Redi */
(PID.TID 0000.0001)                   T
(PID.TID 0000.0001)     ;
(PID.TID 0000.0001) PTRACERS_useDWNSLP = /* apply DOWN-SLOPE Flow */
(PID.TID 0000.0001)                   F
(PID.TID 0000.0001)     ;
(PID.TID 0000.0001) PTRACERS_useKPP = /* apply KPP scheme */
(PID.TID 0000.0001)                   F
(PID.TID 0000.0001)     ;
(PID.TID 0000.0001) PTRACERS_ref = /* Reference vertical profile */
(PID.TID 0000.0001)    15 @  0.000000000000000E+00              /* K =  1: 15 */
(PID.TID 0000.0001)     ;
(PID.TID 0000.0001) PTRACERS_EvPrRn =/* tracer conc. in Evap. & Rain */
(PID.TID 0000.0001)                 1.234567000000000E+05
(PID.TID 0000.0001)     ;
(PID.TID 0000.0001)  -----------------------------------
(PID.TID 0000.0001)  tracer number :   17
(PID.TID 0000.0001) PTRACERS_names = /* Tracer short name */
(PID.TID 0000.0001)               'PON'
(PID.TID 0000.0001)     ;
(PID.TID 0000.0001) PTRACERS_long_names = /* Tracer long name */
(PID.TID 0000.0001)               ''
(PID.TID 0000.0001)     ;
(PID.TID 0000.0001) PTRACERS_ioLabel = /* tracer IO Label */
(PID.TID 0000.0001)               '17'
(PID.TID 0000.0001)     ;
(PID.TID 0000.0001) PTRACERS_advScheme = /* Advection Scheme */
(PID.TID 0000.0001)                      33
(PID.TID 0000.0001)     ;
(PID.TID 0000.0001) PTRACERS_ImplVertAdv = /* implicit vert. advection flag */
(PID.TID 0000.0001)                   F
(PID.TID 0000.0001)     ;
(PID.TID 0000.0001) PTRACERS_diffKh = /* Laplacian Diffusivity */
(PID.TID 0000.0001)                 0.000000000000000E+00
(PID.TID 0000.0001)     ;
(PID.TID 0000.0001) PTRACERS_diffK4 = /* Biharmonic Diffusivity */
(PID.TID 0000.0001)                 0.000000000000000E+00
(PID.TID 0000.0001)     ;
(PID.TID 0000.0001) PTRACERS_diffKrNr = /* Vertical Diffusivity */
(PID.TID 0000.0001)    15 @  1.000000000000000E-05              /* K =  1: 15 */
(PID.TID 0000.0001)     ;
(PID.TID 0000.0001) PTRACERS_useGMRedi = /* apply GM-Redi */
(PID.TID 0000.0001)                   T
(PID.TID 0000.0001)     ;
(PID.TID 0000.0001) PTRACERS_useDWNSLP = /* apply DOWN-SLOPE Flow */
(PID.TID 0000.0001)                   F
(PID.TID 0000.0001)     ;
(PID.TID 0000.0001) PTRACERS_useKPP = /* apply KPP scheme */
(PID.TID 0000.0001)                   F
(PID.TID 0000.0001)     ;
(PID.TID 0000.0001) PTRACERS_ref = /* Reference vertical profile */
(PID.TID 0000.0001)    15 @  0.000000000000000E+00              /* K =  1: 15 */
(PID.TID 0000.0001)     ;
(PID.TID 0000.0001) PTRACERS_EvPrRn =/* tracer conc. in Evap. & Rain */
(PID.TID 0000.0001)                 1.234567000000000E+05
(PID.TID 0000.0001)     ;
(PID.TID 0000.0001)  -----------------------------------
(PID.TID 0000.0001)  tracer number :   18
(PID.TID 0000.0001) PTRACERS_names = /* Tracer short name */
(PID.TID 0000.0001)               'POFe'
(PID.TID 0000.0001)     ;
(PID.TID 0000.0001) PTRACERS_long_names = /* Tracer long name */
(PID.TID 0000.0001)               ''
(PID.TID 0000.0001)     ;
(PID.TID 0000.0001) PTRACERS_ioLabel = /* tracer IO Label */
(PID.TID 0000.0001)               '18'
(PID.TID 0000.0001)     ;
(PID.TID 0000.0001) PTRACERS_advScheme = /* Advection Scheme */
(PID.TID 0000.0001)                      33
(PID.TID 0000.0001)     ;
(PID.TID 0000.0001) PTRACERS_ImplVertAdv = /* implicit vert. advection flag */
(PID.TID 0000.0001)                   F
(PID.TID 0000.0001)     ;
(PID.TID 0000.0001) PTRACERS_diffKh = /* Laplacian Diffusivity */
(PID.TID 0000.0001)                 0.000000000000000E+00
(PID.TID 0000.0001)     ;
(PID.TID 0000.0001) PTRACERS_diffK4 = /* Biharmonic Diffusivity */
(PID.TID 0000.0001)                 0.000000000000000E+00
(PID.TID 0000.0001)     ;
(PID.TID 0000.0001) PTRACERS_diffKrNr = /* Vertical Diffusivity */
(PID.TID 0000.0001)    15 @  1.000000000000000E-05              /* K =  1: 15 */
(PID.TID 0000.0001)     ;
(PID.TID 0000.0001) PTRACERS_useGMRedi = /* apply GM-Redi */
(PID.TID 0000.0001)                   T
(PID.TID 0000.0001)     ;
(PID.TID 0000.0001) PTRACERS_useDWNSLP = /* apply DOWN-SLOPE Flow */
(PID.TID 0000.0001)                   F
(PID.TID 0000.0001)     ;
(PID.TID 0000.0001) PTRACERS_useKPP = /* apply KPP scheme */
(PID.TID 0000.0001)                   F
(PID.TID 0000.0001)     ;
(PID.TID 0000.0001) PTRACERS_ref = /* Reference vertical profile */
(PID.TID 0000.0001)    15 @  0.000000000000000E+00              /* K =  1: 15 */
(PID.TID 0000.0001)     ;
(PID.TID 0000.0001) PTRACERS_EvPrRn =/* tracer conc. in Evap. & Rain */
(PID.TID 0000.0001)                 1.234567000000000E+05
(PID.TID 0000.0001)     ;
(PID.TID 0000.0001)  -----------------------------------
(PID.TID 0000.0001)  tracer number :   19
(PID.TID 0000.0001) PTRACERS_names = /* Tracer short name */
(PID.TID 0000.0001)               'POSi'
(PID.TID 0000.0001)     ;
(PID.TID 0000.0001) PTRACERS_long_names = /* Tracer long name */
(PID.TID 0000.0001)               ''
(PID.TID 0000.0001)     ;
(PID.TID 0000.0001) PTRACERS_ioLabel = /* tracer IO Label */
(PID.TID 0000.0001)               '19'
(PID.TID 0000.0001)     ;
(PID.TID 0000.0001) PTRACERS_advScheme = /* Advection Scheme */
(PID.TID 0000.0001)                      33
(PID.TID 0000.0001)     ;
(PID.TID 0000.0001) PTRACERS_ImplVertAdv = /* implicit vert. advection flag */
(PID.TID 0000.0001)                   F
(PID.TID 0000.0001)     ;
(PID.TID 0000.0001) PTRACERS_diffKh = /* Laplacian Diffusivity */
(PID.TID 0000.0001)                 0.000000000000000E+00
(PID.TID 0000.0001)     ;
(PID.TID 0000.0001) PTRACERS_diffK4 = /* Biharmonic Diffusivity */
(PID.TID 0000.0001)                 0.000000000000000E+00
(PID.TID 0000.0001)     ;
(PID.TID 0000.0001) PTRACERS_diffKrNr = /* Vertical Diffusivity */
(PID.TID 0000.0001)    15 @  1.000000000000000E-05              /* K =  1: 15 */
(PID.TID 0000.0001)     ;
(PID.TID 0000.0001) PTRACERS_useGMRedi = /* apply GM-Redi */
(PID.TID 0000.0001)                   T
(PID.TID 0000.0001)     ;
(PID.TID 0000.0001) PTRACERS_useDWNSLP = /* apply DOWN-SLOPE Flow */
(PID.TID 0000.0001)                   F
(PID.TID 0000.0001)     ;
(PID.TID 0000.0001) PTRACERS_useKPP = /* apply KPP scheme */
(PID.TID 0000.0001)                   F
(PID.TID 0000.0001)     ;
(PID.TID 0000.0001) PTRACERS_ref = /* Reference vertical profile */
(PID.TID 0000.0001)    15 @  0.000000000000000E+00              /* K =  1: 15 */
(PID.TID 0000.0001)     ;
(PID.TID 0000.0001) PTRACERS_EvPrRn =/* tracer conc. in Evap. & Rain */
(PID.TID 0000.0001)                 1.234567000000000E+05
(PID.TID 0000.0001)     ;
(PID.TID 0000.0001)  -----------------------------------
(PID.TID 0000.0001)  tracer number :   20
(PID.TID 0000.0001) PTRACERS_names = /* Tracer short name */
(PID.TID 0000.0001)               'NH4'
(PID.TID 0000.0001)     ;
(PID.TID 0000.0001) PTRACERS_long_names = /* Tracer long name */
(PID.TID 0000.0001)               ''
(PID.TID 0000.0001)     ;
(PID.TID 0000.0001) PTRACERS_ioLabel = /* tracer IO Label */
(PID.TID 0000.0001)               '20'
(PID.TID 0000.0001)     ;
(PID.TID 0000.0001) PTRACERS_advScheme = /* Advection Scheme */
(PID.TID 0000.0001)                      33
(PID.TID 0000.0001)     ;
(PID.TID 0000.0001) PTRACERS_ImplVertAdv = /* implicit vert. advection flag */
(PID.TID 0000.0001)                   F
(PID.TID 0000.0001)     ;
(PID.TID 0000.0001) PTRACERS_diffKh = /* Laplacian Diffusivity */
(PID.TID 0000.0001)                 0.000000000000000E+00
(PID.TID 0000.0001)     ;
(PID.TID 0000.0001) PTRACERS_diffK4 = /* Biharmonic Diffusivity */
(PID.TID 0000.0001)                 0.000000000000000E+00
(PID.TID 0000.0001)     ;
(PID.TID 0000.0001) PTRACERS_diffKrNr = /* Vertical Diffusivity */
(PID.TID 0000.0001)    15 @  1.000000000000000E-05              /* K =  1: 15 */
(PID.TID 0000.0001)     ;
(PID.TID 0000.0001) PTRACERS_useGMRedi = /* apply GM-Redi */
(PID.TID 0000.0001)                   T
(PID.TID 0000.0001)     ;
(PID.TID 0000.0001) PTRACERS_useDWNSLP = /* apply DOWN-SLOPE Flow */
(PID.TID 0000.0001)                   F
(PID.TID 0000.0001)     ;
(PID.TID 0000.0001) PTRACERS_useKPP = /* apply KPP scheme */
(PID.TID 0000.0001)                   F
(PID.TID 0000.0001)     ;
(PID.TID 0000.0001) PTRACERS_ref = /* Reference vertical profile */
(PID.TID 0000.0001)    15 @  0.000000000000000E+00              /* K =  1: 15 */
(PID.TID 0000.0001)     ;
(PID.TID 0000.0001) PTRACERS_EvPrRn =/* tracer conc. in Evap. & Rain */
(PID.TID 0000.0001)                 1.234567000000000E+05
(PID.TID 0000.0001)     ;
(PID.TID 0000.0001)  -----------------------------------
(PID.TID 0000.0001)  tracer number :   21
(PID.TID 0000.0001) PTRACERS_names = /* Tracer short name */
(PID.TID 0000.0001)               'NO2'
(PID.TID 0000.0001)     ;
(PID.TID 0000.0001) PTRACERS_long_names = /* Tracer long name */
(PID.TID 0000.0001)               ''
(PID.TID 0000.0001)     ;
(PID.TID 0000.0001) PTRACERS_ioLabel = /* tracer IO Label */
(PID.TID 0000.0001)               '21'
(PID.TID 0000.0001)     ;
(PID.TID 0000.0001) PTRACERS_advScheme = /* Advection Scheme */
(PID.TID 0000.0001)                      33
(PID.TID 0000.0001)     ;
(PID.TID 0000.0001) PTRACERS_ImplVertAdv = /* implicit vert. advection flag */
(PID.TID 0000.0001)                   F
(PID.TID 0000.0001)     ;
(PID.TID 0000.0001) PTRACERS_diffKh = /* Laplacian Diffusivity */
(PID.TID 0000.0001)                 0.000000000000000E+00
(PID.TID 0000.0001)     ;
(PID.TID 0000.0001) PTRACERS_diffK4 = /* Biharmonic Diffusivity */
(PID.TID 0000.0001)                 0.000000000000000E+00
(PID.TID 0000.0001)     ;
(PID.TID 0000.0001) PTRACERS_diffKrNr = /* Vertical Diffusivity */
(PID.TID 0000.0001)    15 @  1.000000000000000E-05              /* K =  1: 15 */
(PID.TID 0000.0001)     ;
(PID.TID 0000.0001) PTRACERS_useGMRedi = /* apply GM-Redi */
(PID.TID 0000.0001)                   T
(PID.TID 0000.0001)     ;
(PID.TID 0000.0001) PTRACERS_useDWNSLP = /* apply DOWN-SLOPE Flow */
(PID.TID 0000.0001)                   F
(PID.TID 0000.0001)     ;
(PID.TID 0000.0001) PTRACERS_useKPP = /* apply KPP scheme */
(PID.TID 0000.0001)                   F
(PID.TID 0000.0001)     ;
(PID.TID 0000.0001) PTRACERS_ref = /* Reference vertical profile */
(PID.TID 0000.0001)    15 @  0.000000000000000E+00              /* K =  1: 15 */
(PID.TID 0000.0001)     ;
(PID.TID 0000.0001) PTRACERS_EvPrRn =/* tracer conc. in Evap. & Rain */
(PID.TID 0000.0001)                 1.234567000000000E+05
(PID.TID 0000.0001)     ;
(PID.TID 0000.0001)  -----------------------------------
(PID.TID 0000.0001)  tracer number :   22
(PID.TID 0000.0001) PTRACERS_names = /* Tracer short name */
(PID.TID 0000.0001)               'Phy01'
(PID.TID 0000.0001)     ;
(PID.TID 0000.0001) PTRACERS_long_names = /* Tracer long name */
(PID.TID 0000.0001)               ''
(PID.TID 0000.0001)     ;
(PID.TID 0000.0001) PTRACERS_ioLabel = /* tracer IO Label */
(PID.TID 0000.0001)               '22'
(PID.TID 0000.0001)     ;
(PID.TID 0000.0001) PTRACERS_advScheme = /* Advection Scheme */
(PID.TID 0000.0001)                      33
(PID.TID 0000.0001)     ;
(PID.TID 0000.0001) PTRACERS_ImplVertAdv = /* implicit vert. advection flag */
(PID.TID 0000.0001)                   F
(PID.TID 0000.0001)     ;
(PID.TID 0000.0001) PTRACERS_diffKh = /* Laplacian Diffusivity */
(PID.TID 0000.0001)                 0.000000000000000E+00
(PID.TID 0000.0001)     ;
(PID.TID 0000.0001) PTRACERS_diffK4 = /* Biharmonic Diffusivity */
(PID.TID 0000.0001)                 0.000000000000000E+00
(PID.TID 0000.0001)     ;
(PID.TID 0000.0001) PTRACERS_diffKrNr = /* Vertical Diffusivity */
(PID.TID 0000.0001)    15 @  1.000000000000000E-05              /* K =  1: 15 */
(PID.TID 0000.0001)     ;
(PID.TID 0000.0001) PTRACERS_useGMRedi = /* apply GM-Redi */
(PID.TID 0000.0001)                   T
(PID.TID 0000.0001)     ;
(PID.TID 0000.0001) PTRACERS_useDWNSLP = /* apply DOWN-SLOPE Flow */
(PID.TID 0000.0001)                   F
(PID.TID 0000.0001)     ;
(PID.TID 0000.0001) PTRACERS_useKPP = /* apply KPP scheme */
(PID.TID 0000.0001)                   F
(PID.TID 0000.0001)     ;
(PID.TID 0000.0001) PTRACERS_ref = /* Reference vertical profile */
(PID.TID 0000.0001)    15 @  0.000000000000000E+00              /* K =  1: 15 */
(PID.TID 0000.0001)     ;
(PID.TID 0000.0001) PTRACERS_EvPrRn =/* tracer conc. in Evap. & Rain */
(PID.TID 0000.0001)                 1.234567000000000E+05
(PID.TID 0000.0001)     ;
(PID.TID 0000.0001)  -----------------------------------
(PID.TID 0000.0001)  tracer number :   23
(PID.TID 0000.0001) PTRACERS_names = /* Tracer short name */
(PID.TID 0000.0001)               'Phy02'
(PID.TID 0000.0001)     ;
(PID.TID 0000.0001) PTRACERS_long_names = /* Tracer long name */
(PID.TID 0000.0001)               ''
(PID.TID 0000.0001)     ;
(PID.TID 0000.0001) PTRACERS_ioLabel = /* tracer IO Label */
(PID.TID 0000.0001)               '23'
(PID.TID 0000.0001)     ;
(PID.TID 0000.0001) PTRACERS_advScheme = /* Advection Scheme */
(PID.TID 0000.0001)                      33
(PID.TID 0000.0001)     ;
(PID.TID 0000.0001) PTRACERS_ImplVertAdv = /* implicit vert. advection flag */
(PID.TID 0000.0001)                   F
(PID.TID 0000.0001)     ;
(PID.TID 0000.0001) PTRACERS_diffKh = /* Laplacian Diffusivity */
(PID.TID 0000.0001)                 0.000000000000000E+00
(PID.TID 0000.0001)     ;
(PID.TID 0000.0001) PTRACERS_diffK4 = /* Biharmonic Diffusivity */
(PID.TID 0000.0001)                 0.000000000000000E+00
(PID.TID 0000.0001)     ;
(PID.TID 0000.0001) PTRACERS_diffKrNr = /* Vertical Diffusivity */
(PID.TID 0000.0001)    15 @  1.000000000000000E-05              /* K =  1: 15 */
(PID.TID 0000.0001)     ;
(PID.TID 0000.0001) PTRACERS_useGMRedi = /* apply GM-Redi */
(PID.TID 0000.0001)                   T
(PID.TID 0000.0001)     ;
(PID.TID 0000.0001) PTRACERS_useDWNSLP = /* apply DOWN-SLOPE Flow */
(PID.TID 0000.0001)                   F
(PID.TID 0000.0001)     ;
(PID.TID 0000.0001) PTRACERS_useKPP = /* apply KPP scheme */
(PID.TID 0000.0001)                   F
(PID.TID 0000.0001)     ;
(PID.TID 0000.0001) PTRACERS_ref = /* Reference vertical profile */
(PID.TID 0000.0001)    15 @  0.000000000000000E+00              /* K =  1: 15 */
(PID.TID 0000.0001)     ;
(PID.TID 0000.0001) PTRACERS_EvPrRn =/* tracer conc. in Evap. & Rain */
(PID.TID 0000.0001)                 1.234567000000000E+05
(PID.TID 0000.0001)     ;
(PID.TID 0000.0001)  -----------------------------------
(PID.TID 0000.0001)  tracer number :   24
(PID.TID 0000.0001) PTRACERS_names = /* Tracer short name */
(PID.TID 0000.0001)               'Phy03'
(PID.TID 0000.0001)     ;
(PID.TID 0000.0001) PTRACERS_long_names = /* Tracer long name */
(PID.TID 0000.0001)               ''
(PID.TID 0000.0001)     ;
(PID.TID 0000.0001) PTRACERS_ioLabel = /* tracer IO Label */
(PID.TID 0000.0001)               '24'
(PID.TID 0000.0001)     ;
(PID.TID 0000.0001) PTRACERS_advScheme = /* Advection Scheme */
(PID.TID 0000.0001)                      33
(PID.TID 0000.0001)     ;
(PID.TID 0000.0001) PTRACERS_ImplVertAdv = /* implicit vert. advection flag */
(PID.TID 0000.0001)                   F
(PID.TID 0000.0001)     ;
(PID.TID 0000.0001) PTRACERS_diffKh = /* Laplacian Diffusivity */
(PID.TID 0000.0001)                 0.000000000000000E+00
(PID.TID 0000.0001)     ;
(PID.TID 0000.0001) PTRACERS_diffK4 = /* Biharmonic Diffusivity */
(PID.TID 0000.0001)                 0.000000000000000E+00
(PID.TID 0000.0001)     ;
(PID.TID 0000.0001) PTRACERS_diffKrNr = /* Vertical Diffusivity */
(PID.TID 0000.0001)    15 @  1.000000000000000E-05              /* K =  1: 15 */
(PID.TID 0000.0001)     ;
(PID.TID 0000.0001) PTRACERS_useGMRedi = /* apply GM-Redi */
(PID.TID 0000.0001)                   T
(PID.TID 0000.0001)     ;
(PID.TID 0000.0001) PTRACERS_useDWNSLP = /* apply DOWN-SLOPE Flow */
(PID.TID 0000.0001)                   F
(PID.TID 0000.0001)     ;
(PID.TID 0000.0001) PTRACERS_useKPP = /* apply KPP scheme */
(PID.TID 0000.0001)                   F
(PID.TID 0000.0001)     ;
(PID.TID 0000.0001) PTRACERS_ref = /* Reference vertical profile */
(PID.TID 0000.0001)    15 @  0.000000000000000E+00              /* K =  1: 15 */
(PID.TID 0000.0001)     ;
(PID.TID 0000.0001) PTRACERS_EvPrRn =/* tracer conc. in Evap. & Rain */
(PID.TID 0000.0001)                 1.234567000000000E+05
(PID.TID 0000.0001)     ;
(PID.TID 0000.0001)  -----------------------------------
(PID.TID 0000.0001)  tracer number :   25
(PID.TID 0000.0001) PTRACERS_names = /* Tracer short name */
(PID.TID 0000.0001)               'Phy04'
(PID.TID 0000.0001)     ;
(PID.TID 0000.0001) PTRACERS_long_names = /* Tracer long name */
(PID.TID 0000.0001)               ''
(PID.TID 0000.0001)     ;
(PID.TID 0000.0001) PTRACERS_ioLabel = /* tracer IO Label */
(PID.TID 0000.0001)               '25'
(PID.TID 0000.0001)     ;
(PID.TID 0000.0001) PTRACERS_advScheme = /* Advection Scheme */
(PID.TID 0000.0001)                      33
(PID.TID 0000.0001)     ;
(PID.TID 0000.0001) PTRACERS_ImplVertAdv = /* implicit vert. advection flag */
(PID.TID 0000.0001)                   F
(PID.TID 0000.0001)     ;
(PID.TID 0000.0001) PTRACERS_diffKh = /* Laplacian Diffusivity */
(PID.TID 0000.0001)                 0.000000000000000E+00
(PID.TID 0000.0001)     ;
(PID.TID 0000.0001) PTRACERS_diffK4 = /* Biharmonic Diffusivity */
(PID.TID 0000.0001)                 0.000000000000000E+00
(PID.TID 0000.0001)     ;
(PID.TID 0000.0001) PTRACERS_diffKrNr = /* Vertical Diffusivity */
(PID.TID 0000.0001)    15 @  1.000000000000000E-05              /* K =  1: 15 */
(PID.TID 0000.0001)     ;
(PID.TID 0000.0001) PTRACERS_useGMRedi = /* apply GM-Redi */
(PID.TID 0000.0001)                   T
(PID.TID 0000.0001)     ;
(PID.TID 0000.0001) PTRACERS_useDWNSLP = /* apply DOWN-SLOPE Flow */
(PID.TID 0000.0001)                   F
(PID.TID 0000.0001)     ;
(PID.TID 0000.0001) PTRACERS_useKPP = /* apply KPP scheme */
(PID.TID 0000.0001)                   F
(PID.TID 0000.0001)     ;
(PID.TID 0000.0001) PTRACERS_ref = /* Reference vertical profile */
(PID.TID 0000.0001)    15 @  0.000000000000000E+00              /* K =  1: 15 */
(PID.TID 0000.0001)     ;
(PID.TID 0000.0001) PTRACERS_EvPrRn =/* tracer conc. in Evap. & Rain */
(PID.TID 0000.0001)                 1.234567000000000E+05
(PID.TID 0000.0001)     ;
(PID.TID 0000.0001)  -----------------------------------
(PID.TID 0000.0001)  tracer number :   26
(PID.TID 0000.0001) PTRACERS_names = /* Tracer short name */
(PID.TID 0000.0001)               'Phy05'
(PID.TID 0000.0001)     ;
(PID.TID 0000.0001) PTRACERS_long_names = /* Tracer long name */
(PID.TID 0000.0001)               ''
(PID.TID 0000.0001)     ;
(PID.TID 0000.0001) PTRACERS_ioLabel = /* tracer IO Label */
(PID.TID 0000.0001)               '26'
(PID.TID 0000.0001)     ;
(PID.TID 0000.0001) PTRACERS_advScheme = /* Advection Scheme */
(PID.TID 0000.0001)                      33
(PID.TID 0000.0001)     ;
(PID.TID 0000.0001) PTRACERS_ImplVertAdv = /* implicit vert. advection flag */
(PID.TID 0000.0001)                   F
(PID.TID 0000.0001)     ;
(PID.TID 0000.0001) PTRACERS_diffKh = /* Laplacian Diffusivity */
(PID.TID 0000.0001)                 0.000000000000000E+00
(PID.TID 0000.0001)     ;
(PID.TID 0000.0001) PTRACERS_diffK4 = /* Biharmonic Diffusivity */
(PID.TID 0000.0001)                 0.000000000000000E+00
(PID.TID 0000.0001)     ;
(PID.TID 0000.0001) PTRACERS_diffKrNr = /* Vertical Diffusivity */
(PID.TID 0000.0001)    15 @  1.000000000000000E-05              /* K =  1: 15 */
(PID.TID 0000.0001)     ;
(PID.TID 0000.0001) PTRACERS_useGMRedi = /* apply GM-Redi */
(PID.TID 0000.0001)                   T
(PID.TID 0000.0001)     ;
(PID.TID 0000.0001) PTRACERS_useDWNSLP = /* apply DOWN-SLOPE Flow */
(PID.TID 0000.0001)                   F
(PID.TID 0000.0001)     ;
(PID.TID 0000.0001) PTRACERS_useKPP = /* apply KPP scheme */
(PID.TID 0000.0001)                   F
(PID.TID 0000.0001)     ;
(PID.TID 0000.0001) PTRACERS_ref = /* Reference vertical profile */
(PID.TID 0000.0001)    15 @  0.000000000000000E+00              /* K =  1: 15 */
(PID.TID 0000.0001)     ;
(PID.TID 0000.0001) PTRACERS_EvPrRn =/* tracer conc. in Evap. & Rain */
(PID.TID 0000.0001)                 1.234567000000000E+05
(PID.TID 0000.0001)     ;
(PID.TID 0000.0001)  -----------------------------------
(PID.TID 0000.0001)  tracer number :   27
(PID.TID 0000.0001) PTRACERS_names = /* Tracer short name */
(PID.TID 0000.0001)               'Phy06'
(PID.TID 0000.0001)     ;
(PID.TID 0000.0001) PTRACERS_long_names = /* Tracer long name */
(PID.TID 0000.0001)               ''
(PID.TID 0000.0001)     ;
(PID.TID 0000.0001) PTRACERS_ioLabel = /* tracer IO Label */
(PID.TID 0000.0001)               '27'
(PID.TID 0000.0001)     ;
(PID.TID 0000.0001) PTRACERS_advScheme = /* Advection Scheme */
(PID.TID 0000.0001)                      33
(PID.TID 0000.0001)     ;
(PID.TID 0000.0001) PTRACERS_ImplVertAdv = /* implicit vert. advection flag */
(PID.TID 0000.0001)                   F
(PID.TID 0000.0001)     ;
(PID.TID 0000.0001) PTRACERS_diffKh = /* Laplacian Diffusivity */
(PID.TID 0000.0001)                 0.000000000000000E+00
(PID.TID 0000.0001)     ;
(PID.TID 0000.0001) PTRACERS_diffK4 = /* Biharmonic Diffusivity */
(PID.TID 0000.0001)                 0.000000000000000E+00
(PID.TID 0000.0001)     ;
(PID.TID 0000.0001) PTRACERS_diffKrNr = /* Vertical Diffusivity */
(PID.TID 0000.0001)    15 @  1.000000000000000E-05              /* K =  1: 15 */
(PID.TID 0000.0001)     ;
(PID.TID 0000.0001) PTRACERS_useGMRedi = /* apply GM-Redi */
(PID.TID 0000.0001)                   T
(PID.TID 0000.0001)     ;
(PID.TID 0000.0001) PTRACERS_useDWNSLP = /* apply DOWN-SLOPE Flow */
(PID.TID 0000.0001)                   F
(PID.TID 0000.0001)     ;
(PID.TID 0000.0001) PTRACERS_useKPP = /* apply KPP scheme */
(PID.TID 0000.0001)                   F
(PID.TID 0000.0001)     ;
(PID.TID 0000.0001) PTRACERS_ref = /* Reference vertical profile */
(PID.TID 0000.0001)    15 @  0.000000000000000E+00              /* K =  1: 15 */
(PID.TID 0000.0001)     ;
(PID.TID 0000.0001) PTRACERS_EvPrRn =/* tracer conc. in Evap. & Rain */
(PID.TID 0000.0001)                 1.234567000000000E+05
(PID.TID 0000.0001)     ;
(PID.TID 0000.0001)  -----------------------------------
(PID.TID 0000.0001)  tracer number :   28
(PID.TID 0000.0001) PTRACERS_names = /* Tracer short name */
(PID.TID 0000.0001)               'Phy07'
(PID.TID 0000.0001)     ;
(PID.TID 0000.0001) PTRACERS_long_names = /* Tracer long name */
(PID.TID 0000.0001)               ''
(PID.TID 0000.0001)     ;
(PID.TID 0000.0001) PTRACERS_ioLabel = /* tracer IO Label */
(PID.TID 0000.0001)               '28'
(PID.TID 0000.0001)     ;
(PID.TID 0000.0001) PTRACERS_advScheme = /* Advection Scheme */
(PID.TID 0000.0001)                      33
(PID.TID 0000.0001)     ;
(PID.TID 0000.0001) PTRACERS_ImplVertAdv = /* implicit vert. advection flag */
(PID.TID 0000.0001)                   F
(PID.TID 0000.0001)     ;
(PID.TID 0000.0001) PTRACERS_diffKh = /* Laplacian Diffusivity */
(PID.TID 0000.0001)                 0.000000000000000E+00
(PID.TID 0000.0001)     ;
(PID.TID 0000.0001) PTRACERS_diffK4 = /* Biharmonic Diffusivity */
(PID.TID 0000.0001)                 0.000000000000000E+00
(PID.TID 0000.0001)     ;
(PID.TID 0000.0001) PTRACERS_diffKrNr = /* Vertical Diffusivity */
(PID.TID 0000.0001)    15 @  1.000000000000000E-05              /* K =  1: 15 */
(PID.TID 0000.0001)     ;
(PID.TID 0000.0001) PTRACERS_useGMRedi = /* apply GM-Redi */
(PID.TID 0000.0001)                   T
(PID.TID 0000.0001)     ;
(PID.TID 0000.0001) PTRACERS_useDWNSLP = /* apply DOWN-SLOPE Flow */
(PID.TID 0000.0001)                   F
(PID.TID 0000.0001)     ;
(PID.TID 0000.0001) PTRACERS_useKPP = /* apply KPP scheme */
(PID.TID 0000.0001)                   F
(PID.TID 0000.0001)     ;
(PID.TID 0000.0001) PTRACERS_ref = /* Reference vertical profile */
(PID.TID 0000.0001)    15 @  0.000000000000000E+00              /* K =  1: 15 */
(PID.TID 0000.0001)     ;
(PID.TID 0000.0001) PTRACERS_EvPrRn =/* tracer conc. in Evap. & Rain */
(PID.TID 0000.0001)                 1.234567000000000E+05
(PID.TID 0000.0001)     ;
(PID.TID 0000.0001)  -----------------------------------
(PID.TID 0000.0001)  tracer number :   29
(PID.TID 0000.0001) PTRACERS_names = /* Tracer short name */
(PID.TID 0000.0001)               'Phy08'
(PID.TID 0000.0001)     ;
(PID.TID 0000.0001) PTRACERS_long_names = /* Tracer long name */
(PID.TID 0000.0001)               ''
(PID.TID 0000.0001)     ;
(PID.TID 0000.0001) PTRACERS_ioLabel = /* tracer IO Label */
(PID.TID 0000.0001)               '29'
(PID.TID 0000.0001)     ;
(PID.TID 0000.0001) PTRACERS_advScheme = /* Advection Scheme */
(PID.TID 0000.0001)                      33
(PID.TID 0000.0001)     ;
(PID.TID 0000.0001) PTRACERS_ImplVertAdv = /* implicit vert. advection flag */
(PID.TID 0000.0001)                   F
(PID.TID 0000.0001)     ;
(PID.TID 0000.0001) PTRACERS_diffKh = /* Laplacian Diffusivity */
(PID.TID 0000.0001)                 0.000000000000000E+00
(PID.TID 0000.0001)     ;
(PID.TID 0000.0001) PTRACERS_diffK4 = /* Biharmonic Diffusivity */
(PID.TID 0000.0001)                 0.000000000000000E+00
(PID.TID 0000.0001)     ;
(PID.TID 0000.0001) PTRACERS_diffKrNr = /* Vertical Diffusivity */
(PID.TID 0000.0001)    15 @  1.000000000000000E-05              /* K =  1: 15 */
(PID.TID 0000.0001)     ;
(PID.TID 0000.0001) PTRACERS_useGMRedi = /* apply GM-Redi */
(PID.TID 0000.0001)                   T
(PID.TID 0000.0001)     ;
(PID.TID 0000.0001) PTRACERS_useDWNSLP = /* apply DOWN-SLOPE Flow */
(PID.TID 0000.0001)                   F
(PID.TID 0000.0001)     ;
(PID.TID 0000.0001) PTRACERS_useKPP = /* apply KPP scheme */
(PID.TID 0000.0001)                   F
(PID.TID 0000.0001)     ;
(PID.TID 0000.0001) PTRACERS_ref = /* Reference vertical profile */
(PID.TID 0000.0001)    15 @  0.000000000000000E+00              /* K =  1: 15 */
(PID.TID 0000.0001)     ;
(PID.TID 0000.0001) PTRACERS_EvPrRn =/* tracer conc. in Evap. & Rain */
(PID.TID 0000.0001)                 1.234567000000000E+05
(PID.TID 0000.0001)     ;
(PID.TID 0000.0001)  -----------------------------------
(PID.TID 0000.0001)  tracer number :   30
(PID.TID 0000.0001) PTRACERS_names = /* Tracer short name */
(PID.TID 0000.0001)               'Phy09'
(PID.TID 0000.0001)     ;
(PID.TID 0000.0001) PTRACERS_long_names = /* Tracer long name */
(PID.TID 0000.0001)               ''
(PID.TID 0000.0001)     ;
(PID.TID 0000.0001) PTRACERS_ioLabel = /* tracer IO Label */
(PID.TID 0000.0001)               '30'
(PID.TID 0000.0001)     ;
(PID.TID 0000.0001) PTRACERS_advScheme = /* Advection Scheme */
(PID.TID 0000.0001)                      33
(PID.TID 0000.0001)     ;
(PID.TID 0000.0001) PTRACERS_ImplVertAdv = /* implicit vert. advection flag */
(PID.TID 0000.0001)                   F
(PID.TID 0000.0001)     ;
(PID.TID 0000.0001) PTRACERS_diffKh = /* Laplacian Diffusivity */
(PID.TID 0000.0001)                 0.000000000000000E+00
(PID.TID 0000.0001)     ;
(PID.TID 0000.0001) PTRACERS_diffK4 = /* Biharmonic Diffusivity */
(PID.TID 0000.0001)                 0.000000000000000E+00
(PID.TID 0000.0001)     ;
(PID.TID 0000.0001) PTRACERS_diffKrNr = /* Vertical Diffusivity */
(PID.TID 0000.0001)    15 @  1.000000000000000E-05              /* K =  1: 15 */
(PID.TID 0000.0001)     ;
(PID.TID 0000.0001) PTRACERS_useGMRedi = /* apply GM-Redi */
(PID.TID 0000.0001)                   T
(PID.TID 0000.0001)     ;
(PID.TID 0000.0001) PTRACERS_useDWNSLP = /* apply DOWN-SLOPE Flow */
(PID.TID 0000.0001)                   F
(PID.TID 0000.0001)     ;
(PID.TID 0000.0001) PTRACERS_useKPP = /* apply KPP scheme */
(PID.TID 0000.0001)                   F
(PID.TID 0000.0001)     ;
(PID.TID 0000.0001) PTRACERS_ref = /* Reference vertical profile */
(PID.TID 0000.0001)    15 @  0.000000000000000E+00              /* K =  1: 15 */
(PID.TID 0000.0001)     ;
(PID.TID 0000.0001) PTRACERS_EvPrRn =/* tracer conc. in Evap. & Rain */
(PID.TID 0000.0001)                 1.234567000000000E+05
(PID.TID 0000.0001)     ;
(PID.TID 0000.0001)  -----------------------------------
(PID.TID 0000.0001)  tracer number :   31
(PID.TID 0000.0001) PTRACERS_names = /* Tracer short name */
(PID.TID 0000.0001)               'Phy10'
(PID.TID 0000.0001)     ;
(PID.TID 0000.0001) PTRACERS_long_names = /* Tracer long name */
(PID.TID 0000.0001)               ''
(PID.TID 0000.0001)     ;
(PID.TID 0000.0001) PTRACERS_ioLabel = /* tracer IO Label */
(PID.TID 0000.0001)               '31'
(PID.TID 0000.0001)     ;
(PID.TID 0000.0001) PTRACERS_advScheme = /* Advection Scheme */
(PID.TID 0000.0001)                      33
(PID.TID 0000.0001)     ;
(PID.TID 0000.0001) PTRACERS_ImplVertAdv = /* implicit vert. advection flag */
(PID.TID 0000.0001)                   F
(PID.TID 0000.0001)     ;
(PID.TID 0000.0001) PTRACERS_diffKh = /* Laplacian Diffusivity */
(PID.TID 0000.0001)                 0.000000000000000E+00
(PID.TID 0000.0001)     ;
(PID.TID 0000.0001) PTRACERS_diffK4 = /* Biharmonic Diffusivity */
(PID.TID 0000.0001)                 0.000000000000000E+00
(PID.TID 0000.0001)     ;
(PID.TID 0000.0001) PTRACERS_diffKrNr = /* Vertical Diffusivity */
(PID.TID 0000.0001)    15 @  1.000000000000000E-05              /* K =  1: 15 */
(PID.TID 0000.0001)     ;
(PID.TID 0000.0001) PTRACERS_useGMRedi = /* apply GM-Redi */
(PID.TID 0000.0001)                   T
(PID.TID 0000.0001)     ;
(PID.TID 0000.0001) PTRACERS_useDWNSLP = /* apply DOWN-SLOPE Flow */
(PID.TID 0000.0001)                   F
(PID.TID 0000.0001)     ;
(PID.TID 0000.0001) PTRACERS_useKPP = /* apply KPP scheme */
(PID.TID 0000.0001)                   F
(PID.TID 0000.0001)     ;
(PID.TID 0000.0001) PTRACERS_ref = /* Reference vertical profile */
(PID.TID 0000.0001)    15 @  0.000000000000000E+00              /* K =  1: 15 */
(PID.TID 0000.0001)     ;
(PID.TID 0000.0001) PTRACERS_EvPrRn =/* tracer conc. in Evap. & Rain */
(PID.TID 0000.0001)                 1.234567000000000E+05
(PID.TID 0000.0001)     ;
(PID.TID 0000.0001)  -----------------------------------
(PID.TID 0000.0001)  tracer number :   32
(PID.TID 0000.0001) PTRACERS_names = /* Tracer short name */
(PID.TID 0000.0001)               'Phy11'
(PID.TID 0000.0001)     ;
(PID.TID 0000.0001) PTRACERS_long_names = /* Tracer long name */
(PID.TID 0000.0001)               ''
(PID.TID 0000.0001)     ;
(PID.TID 0000.0001) PTRACERS_ioLabel = /* tracer IO Label */
(PID.TID 0000.0001)               '32'
(PID.TID 0000.0001)     ;
(PID.TID 0000.0001) PTRACERS_advScheme = /* Advection Scheme */
(PID.TID 0000.0001)                      33
(PID.TID 0000.0001)     ;
(PID.TID 0000.0001) PTRACERS_ImplVertAdv = /* implicit vert. advection flag */
(PID.TID 0000.0001)                   F
(PID.TID 0000.0001)     ;
(PID.TID 0000.0001) PTRACERS_diffKh = /* Laplacian Diffusivity */
(PID.TID 0000.0001)                 0.000000000000000E+00
(PID.TID 0000.0001)     ;
(PID.TID 0000.0001) PTRACERS_diffK4 = /* Biharmonic Diffusivity */
(PID.TID 0000.0001)                 0.000000000000000E+00
(PID.TID 0000.0001)     ;
(PID.TID 0000.0001) PTRACERS_diffKrNr = /* Vertical Diffusivity */
(PID.TID 0000.0001)    15 @  1.000000000000000E-05              /* K =  1: 15 */
(PID.TID 0000.0001)     ;
(PID.TID 0000.0001) PTRACERS_useGMRedi = /* apply GM-Redi */
(PID.TID 0000.0001)                   T
(PID.TID 0000.0001)     ;
(PID.TID 0000.0001) PTRACERS_useDWNSLP = /* apply DOWN-SLOPE Flow */
(PID.TID 0000.0001)                   F
(PID.TID 0000.0001)     ;
(PID.TID 0000.0001) PTRACERS_useKPP = /* apply KPP scheme */
(PID.TID 0000.0001)                   F
(PID.TID 0000.0001)     ;
(PID.TID 0000.0001) PTRACERS_ref = /* Reference vertical profile */
(PID.TID 0000.0001)    15 @  0.000000000000000E+00              /* K =  1: 15 */
(PID.TID 0000.0001)     ;
(PID.TID 0000.0001) PTRACERS_EvPrRn =/* tracer conc. in Evap. & Rain */
(PID.TID 0000.0001)                 1.234567000000000E+05
(PID.TID 0000.0001)     ;
(PID.TID 0000.0001)  -----------------------------------
(PID.TID 0000.0001)  tracer number :   33
(PID.TID 0000.0001) PTRACERS_names = /* Tracer short name */
(PID.TID 0000.0001)               'Phy12'
(PID.TID 0000.0001)     ;
(PID.TID 0000.0001) PTRACERS_long_names = /* Tracer long name */
(PID.TID 0000.0001)               ''
(PID.TID 0000.0001)     ;
(PID.TID 0000.0001) PTRACERS_ioLabel = /* tracer IO Label */
(PID.TID 0000.0001)               '33'
(PID.TID 0000.0001)     ;
(PID.TID 0000.0001) PTRACERS_advScheme = /* Advection Scheme */
(PID.TID 0000.0001)                      33
(PID.TID 0000.0001)     ;
(PID.TID 0000.0001) PTRACERS_ImplVertAdv = /* implicit vert. advection flag */
(PID.TID 0000.0001)                   F
(PID.TID 0000.0001)     ;
(PID.TID 0000.0001) PTRACERS_diffKh = /* Laplacian Diffusivity */
(PID.TID 0000.0001)                 0.000000000000000E+00
(PID.TID 0000.0001)     ;
(PID.TID 0000.0001) PTRACERS_diffK4 = /* Biharmonic Diffusivity */
(PID.TID 0000.0001)                 0.000000000000000E+00
(PID.TID 0000.0001)     ;
(PID.TID 0000.0001) PTRACERS_diffKrNr = /* Vertical Diffusivity */
(PID.TID 0000.0001)    15 @  1.000000000000000E-05              /* K =  1: 15 */
(PID.TID 0000.0001)     ;
(PID.TID 0000.0001) PTRACERS_useGMRedi = /* apply GM-Redi */
(PID.TID 0000.0001)                   T
(PID.TID 0000.0001)     ;
(PID.TID 0000.0001) PTRACERS_useDWNSLP = /* apply DOWN-SLOPE Flow */
(PID.TID 0000.0001)                   F
(PID.TID 0000.0001)     ;
(PID.TID 0000.0001) PTRACERS_useKPP = /* apply KPP scheme */
(PID.TID 0000.0001)                   F
(PID.TID 0000.0001)     ;
(PID.TID 0000.0001) PTRACERS_ref = /* Reference vertical profile */
(PID.TID 0000.0001)    15 @  0.000000000000000E+00              /* K =  1: 15 */
(PID.TID 0000.0001)     ;
(PID.TID 0000.0001) PTRACERS_EvPrRn =/* tracer conc. in Evap. & Rain */
(PID.TID 0000.0001)                 1.234567000000000E+05
(PID.TID 0000.0001)     ;
(PID.TID 0000.0001)  -----------------------------------
(PID.TID 0000.0001)  tracer number :   34
(PID.TID 0000.0001) PTRACERS_names = /* Tracer short name */
(PID.TID 0000.0001)               'Phy13'
(PID.TID 0000.0001)     ;
(PID.TID 0000.0001) PTRACERS_long_names = /* Tracer long name */
(PID.TID 0000.0001)               ''
(PID.TID 0000.0001)     ;
(PID.TID 0000.0001) PTRACERS_ioLabel = /* tracer IO Label */
(PID.TID 0000.0001)               '34'
(PID.TID 0000.0001)     ;
(PID.TID 0000.0001) PTRACERS_advScheme = /* Advection Scheme */
(PID.TID 0000.0001)                      33
(PID.TID 0000.0001)     ;
(PID.TID 0000.0001) PTRACERS_ImplVertAdv = /* implicit vert. advection flag */
(PID.TID 0000.0001)                   F
(PID.TID 0000.0001)     ;
(PID.TID 0000.0001) PTRACERS_diffKh = /* Laplacian Diffusivity */
(PID.TID 0000.0001)                 0.000000000000000E+00
(PID.TID 0000.0001)     ;
(PID.TID 0000.0001) PTRACERS_diffK4 = /* Biharmonic Diffusivity */
(PID.TID 0000.0001)                 0.000000000000000E+00
(PID.TID 0000.0001)     ;
(PID.TID 0000.0001) PTRACERS_diffKrNr = /* Vertical Diffusivity */
(PID.TID 0000.0001)    15 @  1.000000000000000E-05              /* K =  1: 15 */
(PID.TID 0000.0001)     ;
(PID.TID 0000.0001) PTRACERS_useGMRedi = /* apply GM-Redi */
(PID.TID 0000.0001)                   T
(PID.TID 0000.0001)     ;
(PID.TID 0000.0001) PTRACERS_useDWNSLP = /* apply DOWN-SLOPE Flow */
(PID.TID 0000.0001)                   F
(PID.TID 0000.0001)     ;
(PID.TID 0000.0001) PTRACERS_useKPP = /* apply KPP scheme */
(PID.TID 0000.0001)                   F
(PID.TID 0000.0001)     ;
(PID.TID 0000.0001) PTRACERS_ref = /* Reference vertical profile */
(PID.TID 0000.0001)    15 @  0.000000000000000E+00              /* K =  1: 15 */
(PID.TID 0000.0001)     ;
(PID.TID 0000.0001) PTRACERS_EvPrRn =/* tracer conc. in Evap. & Rain */
(PID.TID 0000.0001)                 1.234567000000000E+05
(PID.TID 0000.0001)     ;
(PID.TID 0000.0001)  -----------------------------------
(PID.TID 0000.0001)  tracer number :   35
(PID.TID 0000.0001) PTRACERS_names = /* Tracer short name */
(PID.TID 0000.0001)               'Phy14'
(PID.TID 0000.0001)     ;
(PID.TID 0000.0001) PTRACERS_long_names = /* Tracer long name */
(PID.TID 0000.0001)               ''
(PID.TID 0000.0001)     ;
(PID.TID 0000.0001) PTRACERS_ioLabel = /* tracer IO Label */
(PID.TID 0000.0001)               '35'
(PID.TID 0000.0001)     ;
(PID.TID 0000.0001) PTRACERS_advScheme = /* Advection Scheme */
(PID.TID 0000.0001)                      33
(PID.TID 0000.0001)     ;
(PID.TID 0000.0001) PTRACERS_ImplVertAdv = /* implicit vert. advection flag */
(PID.TID 0000.0001)                   F
(PID.TID 0000.0001)     ;
(PID.TID 0000.0001) PTRACERS_diffKh = /* Laplacian Diffusivity */
(PID.TID 0000.0001)                 0.000000000000000E+00
(PID.TID 0000.0001)     ;
(PID.TID 0000.0001) PTRACERS_diffK4 = /* Biharmonic Diffusivity */
(PID.TID 0000.0001)                 0.000000000000000E+00
(PID.TID 0000.0001)     ;
(PID.TID 0000.0001) PTRACERS_diffKrNr = /* Vertical Diffusivity */
(PID.TID 0000.0001)    15 @  1.000000000000000E-05              /* K =  1: 15 */
(PID.TID 0000.0001)     ;
(PID.TID 0000.0001) PTRACERS_useGMRedi = /* apply GM-Redi */
(PID.TID 0000.0001)                   T
(PID.TID 0000.0001)     ;
(PID.TID 0000.0001) PTRACERS_useDWNSLP = /* apply DOWN-SLOPE Flow */
(PID.TID 0000.0001)                   F
(PID.TID 0000.0001)     ;
(PID.TID 0000.0001) PTRACERS_useKPP = /* apply KPP scheme */
(PID.TID 0000.0001)                   F
(PID.TID 0000.0001)     ;
(PID.TID 0000.0001) PTRACERS_ref = /* Reference vertical profile */
(PID.TID 0000.0001)    15 @  0.000000000000000E+00              /* K =  1: 15 */
(PID.TID 0000.0001)     ;
(PID.TID 0000.0001) PTRACERS_EvPrRn =/* tracer conc. in Evap. & Rain */
(PID.TID 0000.0001)                 1.234567000000000E+05
(PID.TID 0000.0001)     ;
(PID.TID 0000.0001)  -----------------------------------
(PID.TID 0000.0001)  tracer number :   36
(PID.TID 0000.0001) PTRACERS_names = /* Tracer short name */
(PID.TID 0000.0001)               'Phy15'
(PID.TID 0000.0001)     ;
(PID.TID 0000.0001) PTRACERS_long_names = /* Tracer long name */
(PID.TID 0000.0001)               ''
(PID.TID 0000.0001)     ;
(PID.TID 0000.0001) PTRACERS_ioLabel = /* tracer IO Label */
(PID.TID 0000.0001)               '36'
(PID.TID 0000.0001)     ;
(PID.TID 0000.0001) PTRACERS_advScheme = /* Advection Scheme */
(PID.TID 0000.0001)                      33
(PID.TID 0000.0001)     ;
(PID.TID 0000.0001) PTRACERS_ImplVertAdv = /* implicit vert. advection flag */
(PID.TID 0000.0001)                   F
(PID.TID 0000.0001)     ;
(PID.TID 0000.0001) PTRACERS_diffKh = /* Laplacian Diffusivity */
(PID.TID 0000.0001)                 0.000000000000000E+00
(PID.TID 0000.0001)     ;
(PID.TID 0000.0001) PTRACERS_diffK4 = /* Biharmonic Diffusivity */
(PID.TID 0000.0001)                 0.000000000000000E+00
(PID.TID 0000.0001)     ;
(PID.TID 0000.0001) PTRACERS_diffKrNr = /* Vertical Diffusivity */
(PID.TID 0000.0001)    15 @  1.000000000000000E-05              /* K =  1: 15 */
(PID.TID 0000.0001)     ;
(PID.TID 0000.0001) PTRACERS_useGMRedi = /* apply GM-Redi */
(PID.TID 0000.0001)                   T
(PID.TID 0000.0001)     ;
(PID.TID 0000.0001) PTRACERS_useDWNSLP = /* apply DOWN-SLOPE Flow */
(PID.TID 0000.0001)                   F
(PID.TID 0000.0001)     ;
(PID.TID 0000.0001) PTRACERS_useKPP = /* apply KPP scheme */
(PID.TID 0000.0001)                   F
(PID.TID 0000.0001)     ;
(PID.TID 0000.0001) PTRACERS_ref = /* Reference vertical profile */
(PID.TID 0000.0001)    15 @  0.000000000000000E+00              /* K =  1: 15 */
(PID.TID 0000.0001)     ;
(PID.TID 0000.0001) PTRACERS_EvPrRn =/* tracer conc. in Evap. & Rain */
(PID.TID 0000.0001)                 1.234567000000000E+05
(PID.TID 0000.0001)     ;
(PID.TID 0000.0001)  -----------------------------------
(PID.TID 0000.0001)  tracer number :   37
(PID.TID 0000.0001) PTRACERS_names = /* Tracer short name */
(PID.TID 0000.0001)               'Phy16'
(PID.TID 0000.0001)     ;
(PID.TID 0000.0001) PTRACERS_long_names = /* Tracer long name */
(PID.TID 0000.0001)               ''
(PID.TID 0000.0001)     ;
(PID.TID 0000.0001) PTRACERS_ioLabel = /* tracer IO Label */
(PID.TID 0000.0001)               '37'
(PID.TID 0000.0001)     ;
(PID.TID 0000.0001) PTRACERS_advScheme = /* Advection Scheme */
(PID.TID 0000.0001)                      33
(PID.TID 0000.0001)     ;
(PID.TID 0000.0001) PTRACERS_ImplVertAdv = /* implicit vert. advection flag */
(PID.TID 0000.0001)                   F
(PID.TID 0000.0001)     ;
(PID.TID 0000.0001) PTRACERS_diffKh = /* Laplacian Diffusivity */
(PID.TID 0000.0001)                 0.000000000000000E+00
(PID.TID 0000.0001)     ;
(PID.TID 0000.0001) PTRACERS_diffK4 = /* Biharmonic Diffusivity */
(PID.TID 0000.0001)                 0.000000000000000E+00
(PID.TID 0000.0001)     ;
(PID.TID 0000.0001) PTRACERS_diffKrNr = /* Vertical Diffusivity */
(PID.TID 0000.0001)    15 @  1.000000000000000E-05              /* K =  1: 15 */
(PID.TID 0000.0001)     ;
(PID.TID 0000.0001) PTRACERS_useGMRedi = /* apply GM-Redi */
(PID.TID 0000.0001)                   T
(PID.TID 0000.0001)     ;
(PID.TID 0000.0001) PTRACERS_useDWNSLP = /* apply DOWN-SLOPE Flow */
(PID.TID 0000.0001)                   F
(PID.TID 0000.0001)     ;
(PID.TID 0000.0001) PTRACERS_useKPP = /* apply KPP scheme */
(PID.TID 0000.0001)                   F
(PID.TID 0000.0001)     ;
(PID.TID 0000.0001) PTRACERS_ref = /* Reference vertical profile */
(PID.TID 0000.0001)    15 @  0.000000000000000E+00              /* K =  1: 15 */
(PID.TID 0000.0001)     ;
(PID.TID 0000.0001) PTRACERS_EvPrRn =/* tracer conc. in Evap. & Rain */
(PID.TID 0000.0001)                 1.234567000000000E+05
(PID.TID 0000.0001)     ;
(PID.TID 0000.0001)  -----------------------------------
(PID.TID 0000.0001)  tracer number :   38
(PID.TID 0000.0001) PTRACERS_names = /* Tracer short name */
(PID.TID 0000.0001)               'Phy17'
(PID.TID 0000.0001)     ;
(PID.TID 0000.0001) PTRACERS_long_names = /* Tracer long name */
(PID.TID 0000.0001)               ''
(PID.TID 0000.0001)     ;
(PID.TID 0000.0001) PTRACERS_ioLabel = /* tracer IO Label */
(PID.TID 0000.0001)               '38'
(PID.TID 0000.0001)     ;
(PID.TID 0000.0001) PTRACERS_advScheme = /* Advection Scheme */
(PID.TID 0000.0001)                      33
(PID.TID 0000.0001)     ;
(PID.TID 0000.0001) PTRACERS_ImplVertAdv = /* implicit vert. advection flag */
(PID.TID 0000.0001)                   F
(PID.TID 0000.0001)     ;
(PID.TID 0000.0001) PTRACERS_diffKh = /* Laplacian Diffusivity */
(PID.TID 0000.0001)                 0.000000000000000E+00
(PID.TID 0000.0001)     ;
(PID.TID 0000.0001) PTRACERS_diffK4 = /* Biharmonic Diffusivity */
(PID.TID 0000.0001)                 0.000000000000000E+00
(PID.TID 0000.0001)     ;
(PID.TID 0000.0001) PTRACERS_diffKrNr = /* Vertical Diffusivity */
(PID.TID 0000.0001)    15 @  1.000000000000000E-05              /* K =  1: 15 */
(PID.TID 0000.0001)     ;
(PID.TID 0000.0001) PTRACERS_useGMRedi = /* apply GM-Redi */
(PID.TID 0000.0001)                   T
(PID.TID 0000.0001)     ;
(PID.TID 0000.0001) PTRACERS_useDWNSLP = /* apply DOWN-SLOPE Flow */
(PID.TID 0000.0001)                   F
(PID.TID 0000.0001)     ;
(PID.TID 0000.0001) PTRACERS_useKPP = /* apply KPP scheme */
(PID.TID 0000.0001)                   F
(PID.TID 0000.0001)     ;
(PID.TID 0000.0001) PTRACERS_ref = /* Reference vertical profile */
(PID.TID 0000.0001)    15 @  0.000000000000000E+00              /* K =  1: 15 */
(PID.TID 0000.0001)     ;
(PID.TID 0000.0001) PTRACERS_EvPrRn =/* tracer conc. in Evap. & Rain */
(PID.TID 0000.0001)                 1.234567000000000E+05
(PID.TID 0000.0001)     ;
(PID.TID 0000.0001)  -----------------------------------
(PID.TID 0000.0001)  tracer number :   39
(PID.TID 0000.0001) PTRACERS_names = /* Tracer short name */
(PID.TID 0000.0001)               'Phy18'
(PID.TID 0000.0001)     ;
(PID.TID 0000.0001) PTRACERS_long_names = /* Tracer long name */
(PID.TID 0000.0001)               ''
(PID.TID 0000.0001)     ;
(PID.TID 0000.0001) PTRACERS_ioLabel = /* tracer IO Label */
(PID.TID 0000.0001)               '39'
(PID.TID 0000.0001)     ;
(PID.TID 0000.0001) PTRACERS_advScheme = /* Advection Scheme */
(PID.TID 0000.0001)                      33
(PID.TID 0000.0001)     ;
(PID.TID 0000.0001) PTRACERS_ImplVertAdv = /* implicit vert. advection flag */
(PID.TID 0000.0001)                   F
(PID.TID 0000.0001)     ;
(PID.TID 0000.0001) PTRACERS_diffKh = /* Laplacian Diffusivity */
(PID.TID 0000.0001)                 0.000000000000000E+00
(PID.TID 0000.0001)     ;
(PID.TID 0000.0001) PTRACERS_diffK4 = /* Biharmonic Diffusivity */
(PID.TID 0000.0001)                 0.000000000000000E+00
(PID.TID 0000.0001)     ;
(PID.TID 0000.0001) PTRACERS_diffKrNr = /* Vertical Diffusivity */
(PID.TID 0000.0001)    15 @  1.000000000000000E-05              /* K =  1: 15 */
(PID.TID 0000.0001)     ;
(PID.TID 0000.0001) PTRACERS_useGMRedi = /* apply GM-Redi */
(PID.TID 0000.0001)                   T
(PID.TID 0000.0001)     ;
(PID.TID 0000.0001) PTRACERS_useDWNSLP = /* apply DOWN-SLOPE Flow */
(PID.TID 0000.0001)                   F
(PID.TID 0000.0001)     ;
(PID.TID 0000.0001) PTRACERS_useKPP = /* apply KPP scheme */
(PID.TID 0000.0001)                   F
(PID.TID 0000.0001)     ;
(PID.TID 0000.0001) PTRACERS_ref = /* Reference vertical profile */
(PID.TID 0000.0001)    15 @  0.000000000000000E+00              /* K =  1: 15 */
(PID.TID 0000.0001)     ;
(PID.TID 0000.0001) PTRACERS_EvPrRn =/* tracer conc. in Evap. & Rain */
(PID.TID 0000.0001)                 1.234567000000000E+05
(PID.TID 0000.0001)     ;
(PID.TID 0000.0001)  -----------------------------------
(PID.TID 0000.0001)  tracer number :   40
(PID.TID 0000.0001) PTRACERS_names = /* Tracer short name */
(PID.TID 0000.0001)               'Phy19'
(PID.TID 0000.0001)     ;
(PID.TID 0000.0001) PTRACERS_long_names = /* Tracer long name */
(PID.TID 0000.0001)               ''
(PID.TID 0000.0001)     ;
(PID.TID 0000.0001) PTRACERS_ioLabel = /* tracer IO Label */
(PID.TID 0000.0001)               '40'
(PID.TID 0000.0001)     ;
(PID.TID 0000.0001) PTRACERS_advScheme = /* Advection Scheme */
(PID.TID 0000.0001)                      33
(PID.TID 0000.0001)     ;
(PID.TID 0000.0001) PTRACERS_ImplVertAdv = /* implicit vert. advection flag */
(PID.TID 0000.0001)                   F
(PID.TID 0000.0001)     ;
(PID.TID 0000.0001) PTRACERS_diffKh = /* Laplacian Diffusivity */
(PID.TID 0000.0001)                 0.000000000000000E+00
(PID.TID 0000.0001)     ;
(PID.TID 0000.0001) PTRACERS_diffK4 = /* Biharmonic Diffusivity */
(PID.TID 0000.0001)                 0.000000000000000E+00
(PID.TID 0000.0001)     ;
(PID.TID 0000.0001) PTRACERS_diffKrNr = /* Vertical Diffusivity */
(PID.TID 0000.0001)    15 @  1.000000000000000E-05              /* K =  1: 15 */
(PID.TID 0000.0001)     ;
(PID.TID 0000.0001) PTRACERS_useGMRedi = /* apply GM-Redi */
(PID.TID 0000.0001)                   T
(PID.TID 0000.0001)     ;
(PID.TID 0000.0001) PTRACERS_useDWNSLP = /* apply DOWN-SLOPE Flow */
(PID.TID 0000.0001)                   F
(PID.TID 0000.0001)     ;
(PID.TID 0000.0001) PTRACERS_useKPP = /* apply KPP scheme */
(PID.TID 0000.0001)                   F
(PID.TID 0000.0001)     ;
(PID.TID 0000.0001) PTRACERS_ref = /* Reference vertical profile */
(PID.TID 0000.0001)    15 @  0.000000000000000E+00              /* K =  1: 15 */
(PID.TID 0000.0001)     ;
(PID.TID 0000.0001) PTRACERS_EvPrRn =/* tracer conc. in Evap. & Rain */
(PID.TID 0000.0001)                 1.234567000000000E+05
(PID.TID 0000.0001)     ;
(PID.TID 0000.0001)  -----------------------------------
(PID.TID 0000.0001)  tracer number :   41
(PID.TID 0000.0001) PTRACERS_names = /* Tracer short name */
(PID.TID 0000.0001)               'Phy20'
(PID.TID 0000.0001)     ;
(PID.TID 0000.0001) PTRACERS_long_names = /* Tracer long name */
(PID.TID 0000.0001)               ''
(PID.TID 0000.0001)     ;
(PID.TID 0000.0001) PTRACERS_ioLabel = /* tracer IO Label */
(PID.TID 0000.0001)               '41'
(PID.TID 0000.0001)     ;
(PID.TID 0000.0001) PTRACERS_advScheme = /* Advection Scheme */
(PID.TID 0000.0001)                      33
(PID.TID 0000.0001)     ;
(PID.TID 0000.0001) PTRACERS_ImplVertAdv = /* implicit vert. advection flag */
(PID.TID 0000.0001)                   F
(PID.TID 0000.0001)     ;
(PID.TID 0000.0001) PTRACERS_diffKh = /* Laplacian Diffusivity */
(PID.TID 0000.0001)                 0.000000000000000E+00
(PID.TID 0000.0001)     ;
(PID.TID 0000.0001) PTRACERS_diffK4 = /* Biharmonic Diffusivity */
(PID.TID 0000.0001)                 0.000000000000000E+00
(PID.TID 0000.0001)     ;
(PID.TID 0000.0001) PTRACERS_diffKrNr = /* Vertical Diffusivity */
(PID.TID 0000.0001)    15 @  1.000000000000000E-05              /* K =  1: 15 */
(PID.TID 0000.0001)     ;
(PID.TID 0000.0001) PTRACERS_useGMRedi = /* apply GM-Redi */
(PID.TID 0000.0001)                   T
(PID.TID 0000.0001)     ;
(PID.TID 0000.0001) PTRACERS_useDWNSLP = /* apply DOWN-SLOPE Flow */
(PID.TID 0000.0001)                   F
(PID.TID 0000.0001)     ;
(PID.TID 0000.0001) PTRACERS_useKPP = /* apply KPP scheme */
(PID.TID 0000.0001)                   F
(PID.TID 0000.0001)     ;
(PID.TID 0000.0001) PTRACERS_ref = /* Reference vertical profile */
(PID.TID 0000.0001)    15 @  0.000000000000000E+00              /* K =  1: 15 */
(PID.TID 0000.0001)     ;
(PID.TID 0000.0001) PTRACERS_EvPrRn =/* tracer conc. in Evap. & Rain */
(PID.TID 0000.0001)                 1.234567000000000E+05
(PID.TID 0000.0001)     ;
(PID.TID 0000.0001)  -----------------------------------
(PID.TID 0000.0001)  tracer number :   42
(PID.TID 0000.0001) PTRACERS_names = /* Tracer short name */
(PID.TID 0000.0001)               'Phy21'
(PID.TID 0000.0001)     ;
(PID.TID 0000.0001) PTRACERS_long_names = /* Tracer long name */
(PID.TID 0000.0001)               ''
(PID.TID 0000.0001)     ;
(PID.TID 0000.0001) PTRACERS_ioLabel = /* tracer IO Label */
(PID.TID 0000.0001)               '42'
(PID.TID 0000.0001)     ;
(PID.TID 0000.0001) PTRACERS_advScheme = /* Advection Scheme */
(PID.TID 0000.0001)                      33
(PID.TID 0000.0001)     ;
(PID.TID 0000.0001) PTRACERS_ImplVertAdv = /* implicit vert. advection flag */
(PID.TID 0000.0001)                   F
(PID.TID 0000.0001)     ;
(PID.TID 0000.0001) PTRACERS_diffKh = /* Laplacian Diffusivity */
(PID.TID 0000.0001)                 0.000000000000000E+00
(PID.TID 0000.0001)     ;
(PID.TID 0000.0001) PTRACERS_diffK4 = /* Biharmonic Diffusivity */
(PID.TID 0000.0001)                 0.000000000000000E+00
(PID.TID 0000.0001)     ;
(PID.TID 0000.0001) PTRACERS_diffKrNr = /* Vertical Diffusivity */
(PID.TID 0000.0001)    15 @  1.000000000000000E-05              /* K =  1: 15 */
(PID.TID 0000.0001)     ;
(PID.TID 0000.0001) PTRACERS_useGMRedi = /* apply GM-Redi */
(PID.TID 0000.0001)                   T
(PID.TID 0000.0001)     ;
(PID.TID 0000.0001) PTRACERS_useDWNSLP = /* apply DOWN-SLOPE Flow */
(PID.TID 0000.0001)                   F
(PID.TID 0000.0001)     ;
(PID.TID 0000.0001) PTRACERS_useKPP = /* apply KPP scheme */
(PID.TID 0000.0001)                   F
(PID.TID 0000.0001)     ;
(PID.TID 0000.0001) PTRACERS_ref = /* Reference vertical profile */
(PID.TID 0000.0001)    15 @  0.000000000000000E+00              /* K =  1: 15 */
(PID.TID 0000.0001)     ;
(PID.TID 0000.0001) PTRACERS_EvPrRn =/* tracer conc. in Evap. & Rain */
(PID.TID 0000.0001)                 1.234567000000000E+05
(PID.TID 0000.0001)     ;
(PID.TID 0000.0001)  -----------------------------------
(PID.TID 0000.0001)  tracer number :   43
(PID.TID 0000.0001) PTRACERS_names = /* Tracer short name */
(PID.TID 0000.0001)               'Phy22'
(PID.TID 0000.0001)     ;
(PID.TID 0000.0001) PTRACERS_long_names = /* Tracer long name */
(PID.TID 0000.0001)               ''
(PID.TID 0000.0001)     ;
(PID.TID 0000.0001) PTRACERS_ioLabel = /* tracer IO Label */
(PID.TID 0000.0001)               '43'
(PID.TID 0000.0001)     ;
(PID.TID 0000.0001) PTRACERS_advScheme = /* Advection Scheme */
(PID.TID 0000.0001)                      33
(PID.TID 0000.0001)     ;
(PID.TID 0000.0001) PTRACERS_ImplVertAdv = /* implicit vert. advection flag */
(PID.TID 0000.0001)                   F
(PID.TID 0000.0001)     ;
(PID.TID 0000.0001) PTRACERS_diffKh = /* Laplacian Diffusivity */
(PID.TID 0000.0001)                 0.000000000000000E+00
(PID.TID 0000.0001)     ;
(PID.TID 0000.0001) PTRACERS_diffK4 = /* Biharmonic Diffusivity */
(PID.TID 0000.0001)                 0.000000000000000E+00
(PID.TID 0000.0001)     ;
(PID.TID 0000.0001) PTRACERS_diffKrNr = /* Vertical Diffusivity */
(PID.TID 0000.0001)    15 @  1.000000000000000E-05              /* K =  1: 15 */
(PID.TID 0000.0001)     ;
(PID.TID 0000.0001) PTRACERS_useGMRedi = /* apply GM-Redi */
(PID.TID 0000.0001)                   T
(PID.TID 0000.0001)     ;
(PID.TID 0000.0001) PTRACERS_useDWNSLP = /* apply DOWN-SLOPE Flow */
(PID.TID 0000.0001)                   F
(PID.TID 0000.0001)     ;
(PID.TID 0000.0001) PTRACERS_useKPP = /* apply KPP scheme */
(PID.TID 0000.0001)                   F
(PID.TID 0000.0001)     ;
(PID.TID 0000.0001) PTRACERS_ref = /* Reference vertical profile */
(PID.TID 0000.0001)    15 @  0.000000000000000E+00              /* K =  1: 15 */
(PID.TID 0000.0001)     ;
(PID.TID 0000.0001) PTRACERS_EvPrRn =/* tracer conc. in Evap. & Rain */
(PID.TID 0000.0001)                 1.234567000000000E+05
(PID.TID 0000.0001)     ;
(PID.TID 0000.0001)  -----------------------------------
(PID.TID 0000.0001)  tracer number :   44
(PID.TID 0000.0001) PTRACERS_names = /* Tracer short name */
(PID.TID 0000.0001)               'Phy23'
(PID.TID 0000.0001)     ;
(PID.TID 0000.0001) PTRACERS_long_names = /* Tracer long name */
(PID.TID 0000.0001)               ''
(PID.TID 0000.0001)     ;
(PID.TID 0000.0001) PTRACERS_ioLabel = /* tracer IO Label */
(PID.TID 0000.0001)               '44'
(PID.TID 0000.0001)     ;
(PID.TID 0000.0001) PTRACERS_advScheme = /* Advection Scheme */
(PID.TID 0000.0001)                      33
(PID.TID 0000.0001)     ;
(PID.TID 0000.0001) PTRACERS_ImplVertAdv = /* implicit vert. advection flag */
(PID.TID 0000.0001)                   F
(PID.TID 0000.0001)     ;
(PID.TID 0000.0001) PTRACERS_diffKh = /* Laplacian Diffusivity */
(PID.TID 0000.0001)                 0.000000000000000E+00
(PID.TID 0000.0001)     ;
(PID.TID 0000.0001) PTRACERS_diffK4 = /* Biharmonic Diffusivity */
(PID.TID 0000.0001)                 0.000000000000000E+00
(PID.TID 0000.0001)     ;
(PID.TID 0000.0001) PTRACERS_diffKrNr = /* Vertical Diffusivity */
(PID.TID 0000.0001)    15 @  1.000000000000000E-05              /* K =  1: 15 */
(PID.TID 0000.0001)     ;
(PID.TID 0000.0001) PTRACERS_useGMRedi = /* apply GM-Redi */
(PID.TID 0000.0001)                   T
(PID.TID 0000.0001)     ;
(PID.TID 0000.0001) PTRACERS_useDWNSLP = /* apply DOWN-SLOPE Flow */
(PID.TID 0000.0001)                   F
(PID.TID 0000.0001)     ;
(PID.TID 0000.0001) PTRACERS_useKPP = /* apply KPP scheme */
(PID.TID 0000.0001)                   F
(PID.TID 0000.0001)     ;
(PID.TID 0000.0001) PTRACERS_ref = /* Reference vertical profile */
(PID.TID 0000.0001)    15 @  0.000000000000000E+00              /* K =  1: 15 */
(PID.TID 0000.0001)     ;
(PID.TID 0000.0001) PTRACERS_EvPrRn =/* tracer conc. in Evap. & Rain */
(PID.TID 0000.0001)                 1.234567000000000E+05
(PID.TID 0000.0001)     ;
(PID.TID 0000.0001)  -----------------------------------
(PID.TID 0000.0001)  tracer number :   45
(PID.TID 0000.0001) PTRACERS_names = /* Tracer short name */
(PID.TID 0000.0001)               'Phy24'
(PID.TID 0000.0001)     ;
(PID.TID 0000.0001) PTRACERS_long_names = /* Tracer long name */
(PID.TID 0000.0001)               ''
(PID.TID 0000.0001)     ;
(PID.TID 0000.0001) PTRACERS_ioLabel = /* tracer IO Label */
(PID.TID 0000.0001)               '45'
(PID.TID 0000.0001)     ;
(PID.TID 0000.0001) PTRACERS_advScheme = /* Advection Scheme */
(PID.TID 0000.0001)                      33
(PID.TID 0000.0001)     ;
(PID.TID 0000.0001) PTRACERS_ImplVertAdv = /* implicit vert. advection flag */
(PID.TID 0000.0001)                   F
(PID.TID 0000.0001)     ;
(PID.TID 0000.0001) PTRACERS_diffKh = /* Laplacian Diffusivity */
(PID.TID 0000.0001)                 0.000000000000000E+00
(PID.TID 0000.0001)     ;
(PID.TID 0000.0001) PTRACERS_diffK4 = /* Biharmonic Diffusivity */
(PID.TID 0000.0001)                 0.000000000000000E+00
(PID.TID 0000.0001)     ;
(PID.TID 0000.0001) PTRACERS_diffKrNr = /* Vertical Diffusivity */
(PID.TID 0000.0001)    15 @  1.000000000000000E-05              /* K =  1: 15 */
(PID.TID 0000.0001)     ;
(PID.TID 0000.0001) PTRACERS_useGMRedi = /* apply GM-Redi */
(PID.TID 0000.0001)                   T
(PID.TID 0000.0001)     ;
(PID.TID 0000.0001) PTRACERS_useDWNSLP = /* apply DOWN-SLOPE Flow */
(PID.TID 0000.0001)                   F
(PID.TID 0000.0001)     ;
(PID.TID 0000.0001) PTRACERS_useKPP = /* apply KPP scheme */
(PID.TID 0000.0001)                   F
(PID.TID 0000.0001)     ;
(PID.TID 0000.0001) PTRACERS_ref = /* Reference vertical profile */
(PID.TID 0000.0001)    15 @  0.000000000000000E+00              /* K =  1: 15 */
(PID.TID 0000.0001)     ;
(PID.TID 0000.0001) PTRACERS_EvPrRn =/* tracer conc. in Evap. & Rain */
(PID.TID 0000.0001)                 1.234567000000000E+05
(PID.TID 0000.0001)     ;
(PID.TID 0000.0001)  -----------------------------------
(PID.TID 0000.0001)  tracer number :   46
(PID.TID 0000.0001) PTRACERS_names = /* Tracer short name */
(PID.TID 0000.0001)               'Phy25'
(PID.TID 0000.0001)     ;
(PID.TID 0000.0001) PTRACERS_long_names = /* Tracer long name */
(PID.TID 0000.0001)               ''
(PID.TID 0000.0001)     ;
(PID.TID 0000.0001) PTRACERS_ioLabel = /* tracer IO Label */
(PID.TID 0000.0001)               '46'
(PID.TID 0000.0001)     ;
(PID.TID 0000.0001) PTRACERS_advScheme = /* Advection Scheme */
(PID.TID 0000.0001)                      33
(PID.TID 0000.0001)     ;
(PID.TID 0000.0001) PTRACERS_ImplVertAdv = /* implicit vert. advection flag */
(PID.TID 0000.0001)                   F
(PID.TID 0000.0001)     ;
(PID.TID 0000.0001) PTRACERS_diffKh = /* Laplacian Diffusivity */
(PID.TID 0000.0001)                 0.000000000000000E+00
(PID.TID 0000.0001)     ;
(PID.TID 0000.0001) PTRACERS_diffK4 = /* Biharmonic Diffusivity */
(PID.TID 0000.0001)                 0.000000000000000E+00
(PID.TID 0000.0001)     ;
(PID.TID 0000.0001) PTRACERS_diffKrNr = /* Vertical Diffusivity */
(PID.TID 0000.0001)    15 @  1.000000000000000E-05              /* K =  1: 15 */
(PID.TID 0000.0001)     ;
(PID.TID 0000.0001) PTRACERS_useGMRedi = /* apply GM-Redi */
(PID.TID 0000.0001)                   T
(PID.TID 0000.0001)     ;
(PID.TID 0000.0001) PTRACERS_useDWNSLP = /* apply DOWN-SLOPE Flow */
(PID.TID 0000.0001)                   F
(PID.TID 0000.0001)     ;
(PID.TID 0000.0001) PTRACERS_useKPP = /* apply KPP scheme */
(PID.TID 0000.0001)                   F
(PID.TID 0000.0001)     ;
(PID.TID 0000.0001) PTRACERS_ref = /* Reference vertical profile */
(PID.TID 0000.0001)    15 @  0.000000000000000E+00              /* K =  1: 15 */
(PID.TID 0000.0001)     ;
(PID.TID 0000.0001) PTRACERS_EvPrRn =/* tracer conc. in Evap. & Rain */
(PID.TID 0000.0001)                 1.234567000000000E+05
(PID.TID 0000.0001)     ;
(PID.TID 0000.0001)  -----------------------------------
(PID.TID 0000.0001)  tracer number :   47
(PID.TID 0000.0001) PTRACERS_names = /* Tracer short name */
(PID.TID 0000.0001)               'Phy26'
(PID.TID 0000.0001)     ;
(PID.TID 0000.0001) PTRACERS_long_names = /* Tracer long name */
(PID.TID 0000.0001)               ''
(PID.TID 0000.0001)     ;
(PID.TID 0000.0001) PTRACERS_ioLabel = /* tracer IO Label */
(PID.TID 0000.0001)               '47'
(PID.TID 0000.0001)     ;
(PID.TID 0000.0001) PTRACERS_advScheme = /* Advection Scheme */
(PID.TID 0000.0001)                      33
(PID.TID 0000.0001)     ;
(PID.TID 0000.0001) PTRACERS_ImplVertAdv = /* implicit vert. advection flag */
(PID.TID 0000.0001)                   F
(PID.TID 0000.0001)     ;
(PID.TID 0000.0001) PTRACERS_diffKh = /* Laplacian Diffusivity */
(PID.TID 0000.0001)                 0.000000000000000E+00
(PID.TID 0000.0001)     ;
(PID.TID 0000.0001) PTRACERS_diffK4 = /* Biharmonic Diffusivity */
(PID.TID 0000.0001)                 0.000000000000000E+00
(PID.TID 0000.0001)     ;
(PID.TID 0000.0001) PTRACERS_diffKrNr = /* Vertical Diffusivity */
(PID.TID 0000.0001)    15 @  1.000000000000000E-05              /* K =  1: 15 */
(PID.TID 0000.0001)     ;
(PID.TID 0000.0001) PTRACERS_useGMRedi = /* apply GM-Redi */
(PID.TID 0000.0001)                   T
(PID.TID 0000.0001)     ;
(PID.TID 0000.0001) PTRACERS_useDWNSLP = /* apply DOWN-SLOPE Flow */
(PID.TID 0000.0001)                   F
(PID.TID 0000.0001)     ;
(PID.TID 0000.0001) PTRACERS_useKPP = /* apply KPP scheme */
(PID.TID 0000.0001)                   F
(PID.TID 0000.0001)     ;
(PID.TID 0000.0001) PTRACERS_ref = /* Reference vertical profile */
(PID.TID 0000.0001)    15 @  0.000000000000000E+00              /* K =  1: 15 */
(PID.TID 0000.0001)     ;
(PID.TID 0000.0001) PTRACERS_EvPrRn =/* tracer conc. in Evap. & Rain */
(PID.TID 0000.0001)                 1.234567000000000E+05
(PID.TID 0000.0001)     ;
(PID.TID 0000.0001)  -----------------------------------
(PID.TID 0000.0001)  tracer number :   48
(PID.TID 0000.0001) PTRACERS_names = /* Tracer short name */
(PID.TID 0000.0001)               'Phy27'
(PID.TID 0000.0001)     ;
(PID.TID 0000.0001) PTRACERS_long_names = /* Tracer long name */
(PID.TID 0000.0001)               ''
(PID.TID 0000.0001)     ;
(PID.TID 0000.0001) PTRACERS_ioLabel = /* tracer IO Label */
(PID.TID 0000.0001)               '48'
(PID.TID 0000.0001)     ;
(PID.TID 0000.0001) PTRACERS_advScheme = /* Advection Scheme */
(PID.TID 0000.0001)                      33
(PID.TID 0000.0001)     ;
(PID.TID 0000.0001) PTRACERS_ImplVertAdv = /* implicit vert. advection flag */
(PID.TID 0000.0001)                   F
(PID.TID 0000.0001)     ;
(PID.TID 0000.0001) PTRACERS_diffKh = /* Laplacian Diffusivity */
(PID.TID 0000.0001)                 0.000000000000000E+00
(PID.TID 0000.0001)     ;
(PID.TID 0000.0001) PTRACERS_diffK4 = /* Biharmonic Diffusivity */
(PID.TID 0000.0001)                 0.000000000000000E+00
(PID.TID 0000.0001)     ;
(PID.TID 0000.0001) PTRACERS_diffKrNr = /* Vertical Diffusivity */
(PID.TID 0000.0001)    15 @  1.000000000000000E-05              /* K =  1: 15 */
(PID.TID 0000.0001)     ;
(PID.TID 0000.0001) PTRACERS_useGMRedi = /* apply GM-Redi */
(PID.TID 0000.0001)                   T
(PID.TID 0000.0001)     ;
(PID.TID 0000.0001) PTRACERS_useDWNSLP = /* apply DOWN-SLOPE Flow */
(PID.TID 0000.0001)                   F
(PID.TID 0000.0001)     ;
(PID.TID 0000.0001) PTRACERS_useKPP = /* apply KPP scheme */
(PID.TID 0000.0001)                   F
(PID.TID 0000.0001)     ;
(PID.TID 0000.0001) PTRACERS_ref = /* Reference vertical profile */
(PID.TID 0000.0001)    15 @  0.000000000000000E+00              /* K =  1: 15 */
(PID.TID 0000.0001)     ;
(PID.TID 0000.0001) PTRACERS_EvPrRn =/* tracer conc. in Evap. & Rain */
(PID.TID 0000.0001)                 1.234567000000000E+05
(PID.TID 0000.0001)     ;
(PID.TID 0000.0001)  -----------------------------------
(PID.TID 0000.0001)  tracer number :   49
(PID.TID 0000.0001) PTRACERS_names = /* Tracer short name */
(PID.TID 0000.0001)               'Phy28'
(PID.TID 0000.0001)     ;
(PID.TID 0000.0001) PTRACERS_long_names = /* Tracer long name */
(PID.TID 0000.0001)               ''
(PID.TID 0000.0001)     ;
(PID.TID 0000.0001) PTRACERS_ioLabel = /* tracer IO Label */
(PID.TID 0000.0001)               '49'
(PID.TID 0000.0001)     ;
(PID.TID 0000.0001) PTRACERS_advScheme = /* Advection Scheme */
(PID.TID 0000.0001)                      33
(PID.TID 0000.0001)     ;
(PID.TID 0000.0001) PTRACERS_ImplVertAdv = /* implicit vert. advection flag */
(PID.TID 0000.0001)                   F
(PID.TID 0000.0001)     ;
(PID.TID 0000.0001) PTRACERS_diffKh = /* Laplacian Diffusivity */
(PID.TID 0000.0001)                 0.000000000000000E+00
(PID.TID 0000.0001)     ;
(PID.TID 0000.0001) PTRACERS_diffK4 = /* Biharmonic Diffusivity */
(PID.TID 0000.0001)                 0.000000000000000E+00
(PID.TID 0000.0001)     ;
(PID.TID 0000.0001) PTRACERS_diffKrNr = /* Vertical Diffusivity */
(PID.TID 0000.0001)    15 @  1.000000000000000E-05              /* K =  1: 15 */
(PID.TID 0000.0001)     ;
(PID.TID 0000.0001) PTRACERS_useGMRedi = /* apply GM-Redi */
(PID.TID 0000.0001)                   T
(PID.TID 0000.0001)     ;
(PID.TID 0000.0001) PTRACERS_useDWNSLP = /* apply DOWN-SLOPE Flow */
(PID.TID 0000.0001)                   F
(PID.TID 0000.0001)     ;
(PID.TID 0000.0001) PTRACERS_useKPP = /* apply KPP scheme */
(PID.TID 0000.0001)                   F
(PID.TID 0000.0001)     ;
(PID.TID 0000.0001) PTRACERS_ref = /* Reference vertical profile */
(PID.TID 0000.0001)    15 @  0.000000000000000E+00              /* K =  1: 15 */
(PID.TID 0000.0001)     ;
(PID.TID 0000.0001) PTRACERS_EvPrRn =/* tracer conc. in Evap. & Rain */
(PID.TID 0000.0001)                 1.234567000000000E+05
(PID.TID 0000.0001)     ;
(PID.TID 0000.0001)  -----------------------------------
(PID.TID 0000.0001)  tracer number :   50
(PID.TID 0000.0001) PTRACERS_names = /* Tracer short name */
(PID.TID 0000.0001)               'Phy29'
(PID.TID 0000.0001)     ;
(PID.TID 0000.0001) PTRACERS_long_names = /* Tracer long name */
(PID.TID 0000.0001)               ''
(PID.TID 0000.0001)     ;
(PID.TID 0000.0001) PTRACERS_ioLabel = /* tracer IO Label */
(PID.TID 0000.0001)               '50'
(PID.TID 0000.0001)     ;
(PID.TID 0000.0001) PTRACERS_advScheme = /* Advection Scheme */
(PID.TID 0000.0001)                      33
(PID.TID 0000.0001)     ;
(PID.TID 0000.0001) PTRACERS_ImplVertAdv = /* implicit vert. advection flag */
(PID.TID 0000.0001)                   F
(PID.TID 0000.0001)     ;
(PID.TID 0000.0001) PTRACERS_diffKh = /* Laplacian Diffusivity */
(PID.TID 0000.0001)                 0.000000000000000E+00
(PID.TID 0000.0001)     ;
(PID.TID 0000.0001) PTRACERS_diffK4 = /* Biharmonic Diffusivity */
(PID.TID 0000.0001)                 0.000000000000000E+00
(PID.TID 0000.0001)     ;
(PID.TID 0000.0001) PTRACERS_diffKrNr = /* Vertical Diffusivity */
(PID.TID 0000.0001)    15 @  1.000000000000000E-05              /* K =  1: 15 */
(PID.TID 0000.0001)     ;
(PID.TID 0000.0001) PTRACERS_useGMRedi = /* apply GM-Redi */
(PID.TID 0000.0001)                   T
(PID.TID 0000.0001)     ;
(PID.TID 0000.0001) PTRACERS_useDWNSLP = /* apply DOWN-SLOPE Flow */
(PID.TID 0000.0001)                   F
(PID.TID 0000.0001)     ;
(PID.TID 0000.0001) PTRACERS_useKPP = /* apply KPP scheme */
(PID.TID 0000.0001)                   F
(PID.TID 0000.0001)     ;
(PID.TID 0000.0001) PTRACERS_ref = /* Reference vertical profile */
(PID.TID 0000.0001)    15 @  0.000000000000000E+00              /* K =  1: 15 */
(PID.TID 0000.0001)     ;
(PID.TID 0000.0001) PTRACERS_EvPrRn =/* tracer conc. in Evap. & Rain */
(PID.TID 0000.0001)                 1.234567000000000E+05
(PID.TID 0000.0001)     ;
(PID.TID 0000.0001)  -----------------------------------
(PID.TID 0000.0001)  tracer number :   51
(PID.TID 0000.0001) PTRACERS_names = /* Tracer short name */
(PID.TID 0000.0001)               'Phy30'
(PID.TID 0000.0001)     ;
(PID.TID 0000.0001) PTRACERS_long_names = /* Tracer long name */
(PID.TID 0000.0001)               ''
(PID.TID 0000.0001)     ;
(PID.TID 0000.0001) PTRACERS_ioLabel = /* tracer IO Label */
(PID.TID 0000.0001)               '51'
(PID.TID 0000.0001)     ;
(PID.TID 0000.0001) PTRACERS_advScheme = /* Advection Scheme */
(PID.TID 0000.0001)                      33
(PID.TID 0000.0001)     ;
(PID.TID 0000.0001) PTRACERS_ImplVertAdv = /* implicit vert. advection flag */
(PID.TID 0000.0001)                   F
(PID.TID 0000.0001)     ;
(PID.TID 0000.0001) PTRACERS_diffKh = /* Laplacian Diffusivity */
(PID.TID 0000.0001)                 0.000000000000000E+00
(PID.TID 0000.0001)     ;
(PID.TID 0000.0001) PTRACERS_diffK4 = /* Biharmonic Diffusivity */
(PID.TID 0000.0001)                 0.000000000000000E+00
(PID.TID 0000.0001)     ;
(PID.TID 0000.0001) PTRACERS_diffKrNr = /* Vertical Diffusivity */
(PID.TID 0000.0001)    15 @  1.000000000000000E-05              /* K =  1: 15 */
(PID.TID 0000.0001)     ;
(PID.TID 0000.0001) PTRACERS_useGMRedi = /* apply GM-Redi */
(PID.TID 0000.0001)                   T
(PID.TID 0000.0001)     ;
(PID.TID 0000.0001) PTRACERS_useDWNSLP = /* apply DOWN-SLOPE Flow */
(PID.TID 0000.0001)                   F
(PID.TID 0000.0001)     ;
(PID.TID 0000.0001) PTRACERS_useKPP = /* apply KPP scheme */
(PID.TID 0000.0001)                   F
(PID.TID 0000.0001)     ;
(PID.TID 0000.0001) PTRACERS_ref = /* Reference vertical profile */
(PID.TID 0000.0001)    15 @  0.000000000000000E+00              /* K =  1: 15 */
(PID.TID 0000.0001)     ;
(PID.TID 0000.0001) PTRACERS_EvPrRn =/* tracer conc. in Evap. & Rain */
(PID.TID 0000.0001)                 1.234567000000000E+05
(PID.TID 0000.0001)     ;
(PID.TID 0000.0001)  -----------------------------------
(PID.TID 0000.0001)  tracer number :   52
(PID.TID 0000.0001) PTRACERS_names = /* Tracer short name */
(PID.TID 0000.0001)               'Phy31'
(PID.TID 0000.0001)     ;
(PID.TID 0000.0001) PTRACERS_long_names = /* Tracer long name */
(PID.TID 0000.0001)               ''
(PID.TID 0000.0001)     ;
(PID.TID 0000.0001) PTRACERS_ioLabel = /* tracer IO Label */
(PID.TID 0000.0001)               '52'
(PID.TID 0000.0001)     ;
(PID.TID 0000.0001) PTRACERS_advScheme = /* Advection Scheme */
(PID.TID 0000.0001)                      33
(PID.TID 0000.0001)     ;
(PID.TID 0000.0001) PTRACERS_ImplVertAdv = /* implicit vert. advection flag */
(PID.TID 0000.0001)                   F
(PID.TID 0000.0001)     ;
(PID.TID 0000.0001) PTRACERS_diffKh = /* Laplacian Diffusivity */
(PID.TID 0000.0001)                 0.000000000000000E+00
(PID.TID 0000.0001)     ;
(PID.TID 0000.0001) PTRACERS_diffK4 = /* Biharmonic Diffusivity */
(PID.TID 0000.0001)                 0.000000000000000E+00
(PID.TID 0000.0001)     ;
(PID.TID 0000.0001) PTRACERS_diffKrNr = /* Vertical Diffusivity */
(PID.TID 0000.0001)    15 @  1.000000000000000E-05              /* K =  1: 15 */
(PID.TID 0000.0001)     ;
(PID.TID 0000.0001) PTRACERS_useGMRedi = /* apply GM-Redi */
(PID.TID 0000.0001)                   T
(PID.TID 0000.0001)     ;
(PID.TID 0000.0001) PTRACERS_useDWNSLP = /* apply DOWN-SLOPE Flow */
(PID.TID 0000.0001)                   F
(PID.TID 0000.0001)     ;
(PID.TID 0000.0001) PTRACERS_useKPP = /* apply KPP scheme */
(PID.TID 0000.0001)                   F
(PID.TID 0000.0001)     ;
(PID.TID 0000.0001) PTRACERS_ref = /* Reference vertical profile */
(PID.TID 0000.0001)    15 @  0.000000000000000E+00              /* K =  1: 15 */
(PID.TID 0000.0001)     ;
(PID.TID 0000.0001) PTRACERS_EvPrRn =/* tracer conc. in Evap. & Rain */
(PID.TID 0000.0001)                 1.234567000000000E+05
(PID.TID 0000.0001)     ;
(PID.TID 0000.0001)  -----------------------------------
(PID.TID 0000.0001)  tracer number :   53
(PID.TID 0000.0001) PTRACERS_names = /* Tracer short name */
(PID.TID 0000.0001)               'Phy32'
(PID.TID 0000.0001)     ;
(PID.TID 0000.0001) PTRACERS_long_names = /* Tracer long name */
(PID.TID 0000.0001)               ''
(PID.TID 0000.0001)     ;
(PID.TID 0000.0001) PTRACERS_ioLabel = /* tracer IO Label */
(PID.TID 0000.0001)               '53'
(PID.TID 0000.0001)     ;
(PID.TID 0000.0001) PTRACERS_advScheme = /* Advection Scheme */
(PID.TID 0000.0001)                      33
(PID.TID 0000.0001)     ;
(PID.TID 0000.0001) PTRACERS_ImplVertAdv = /* implicit vert. advection flag */
(PID.TID 0000.0001)                   F
(PID.TID 0000.0001)     ;
(PID.TID 0000.0001) PTRACERS_diffKh = /* Laplacian Diffusivity */
(PID.TID 0000.0001)                 0.000000000000000E+00
(PID.TID 0000.0001)     ;
(PID.TID 0000.0001) PTRACERS_diffK4 = /* Biharmonic Diffusivity */
(PID.TID 0000.0001)                 0.000000000000000E+00
(PID.TID 0000.0001)     ;
(PID.TID 0000.0001) PTRACERS_diffKrNr = /* Vertical Diffusivity */
(PID.TID 0000.0001)    15 @  1.000000000000000E-05              /* K =  1: 15 */
(PID.TID 0000.0001)     ;
(PID.TID 0000.0001) PTRACERS_useGMRedi = /* apply GM-Redi */
(PID.TID 0000.0001)                   T
(PID.TID 0000.0001)     ;
(PID.TID 0000.0001) PTRACERS_useDWNSLP = /* apply DOWN-SLOPE Flow */
(PID.TID 0000.0001)                   F
(PID.TID 0000.0001)     ;
(PID.TID 0000.0001) PTRACERS_useKPP = /* apply KPP scheme */
(PID.TID 0000.0001)                   F
(PID.TID 0000.0001)     ;
(PID.TID 0000.0001) PTRACERS_ref = /* Reference vertical profile */
(PID.TID 0000.0001)    15 @  0.000000000000000E+00              /* K =  1: 15 */
(PID.TID 0000.0001)     ;
(PID.TID 0000.0001) PTRACERS_EvPrRn =/* tracer conc. in Evap. & Rain */
(PID.TID 0000.0001)                 1.234567000000000E+05
(PID.TID 0000.0001)     ;
(PID.TID 0000.0001)  -----------------------------------
(PID.TID 0000.0001)  tracer number :   54
(PID.TID 0000.0001) PTRACERS_names = /* Tracer short name */
(PID.TID 0000.0001)               'Phy33'
(PID.TID 0000.0001)     ;
(PID.TID 0000.0001) PTRACERS_long_names = /* Tracer long name */
(PID.TID 0000.0001)               ''
(PID.TID 0000.0001)     ;
(PID.TID 0000.0001) PTRACERS_ioLabel = /* tracer IO Label */
(PID.TID 0000.0001)               '54'
(PID.TID 0000.0001)     ;
(PID.TID 0000.0001) PTRACERS_advScheme = /* Advection Scheme */
(PID.TID 0000.0001)                      33
(PID.TID 0000.0001)     ;
(PID.TID 0000.0001) PTRACERS_ImplVertAdv = /* implicit vert. advection flag */
(PID.TID 0000.0001)                   F
(PID.TID 0000.0001)     ;
(PID.TID 0000.0001) PTRACERS_diffKh = /* Laplacian Diffusivity */
(PID.TID 0000.0001)                 0.000000000000000E+00
(PID.TID 0000.0001)     ;
(PID.TID 0000.0001) PTRACERS_diffK4 = /* Biharmonic Diffusivity */
(PID.TID 0000.0001)                 0.000000000000000E+00
(PID.TID 0000.0001)     ;
(PID.TID 0000.0001) PTRACERS_diffKrNr = /* Vertical Diffusivity */
(PID.TID 0000.0001)    15 @  1.000000000000000E-05              /* K =  1: 15 */
(PID.TID 0000.0001)     ;
(PID.TID 0000.0001) PTRACERS_useGMRedi = /* apply GM-Redi */
(PID.TID 0000.0001)                   T
(PID.TID 0000.0001)     ;
(PID.TID 0000.0001) PTRACERS_useDWNSLP = /* apply DOWN-SLOPE Flow */
(PID.TID 0000.0001)                   F
(PID.TID 0000.0001)     ;
(PID.TID 0000.0001) PTRACERS_useKPP = /* apply KPP scheme */
(PID.TID 0000.0001)                   F
(PID.TID 0000.0001)     ;
(PID.TID 0000.0001) PTRACERS_ref = /* Reference vertical profile */
(PID.TID 0000.0001)    15 @  0.000000000000000E+00              /* K =  1: 15 */
(PID.TID 0000.0001)     ;
(PID.TID 0000.0001) PTRACERS_EvPrRn =/* tracer conc. in Evap. & Rain */
(PID.TID 0000.0001)                 1.234567000000000E+05
(PID.TID 0000.0001)     ;
(PID.TID 0000.0001)  -----------------------------------
(PID.TID 0000.0001)  tracer number :   55
(PID.TID 0000.0001) PTRACERS_names = /* Tracer short name */
(PID.TID 0000.0001)               'Phy34'
(PID.TID 0000.0001)     ;
(PID.TID 0000.0001) PTRACERS_long_names = /* Tracer long name */
(PID.TID 0000.0001)               ''
(PID.TID 0000.0001)     ;
(PID.TID 0000.0001) PTRACERS_ioLabel = /* tracer IO Label */
(PID.TID 0000.0001)               '55'
(PID.TID 0000.0001)     ;
(PID.TID 0000.0001) PTRACERS_advScheme = /* Advection Scheme */
(PID.TID 0000.0001)                      33
(PID.TID 0000.0001)     ;
(PID.TID 0000.0001) PTRACERS_ImplVertAdv = /* implicit vert. advection flag */
(PID.TID 0000.0001)                   F
(PID.TID 0000.0001)     ;
(PID.TID 0000.0001) PTRACERS_diffKh = /* Laplacian Diffusivity */
(PID.TID 0000.0001)                 0.000000000000000E+00
(PID.TID 0000.0001)     ;
(PID.TID 0000.0001) PTRACERS_diffK4 = /* Biharmonic Diffusivity */
(PID.TID 0000.0001)                 0.000000000000000E+00
(PID.TID 0000.0001)     ;
(PID.TID 0000.0001) PTRACERS_diffKrNr = /* Vertical Diffusivity */
(PID.TID 0000.0001)    15 @  1.000000000000000E-05              /* K =  1: 15 */
(PID.TID 0000.0001)     ;
(PID.TID 0000.0001) PTRACERS_useGMRedi = /* apply GM-Redi */
(PID.TID 0000.0001)                   T
(PID.TID 0000.0001)     ;
(PID.TID 0000.0001) PTRACERS_useDWNSLP = /* apply DOWN-SLOPE Flow */
(PID.TID 0000.0001)                   F
(PID.TID 0000.0001)     ;
(PID.TID 0000.0001) PTRACERS_useKPP = /* apply KPP scheme */
(PID.TID 0000.0001)                   F
(PID.TID 0000.0001)     ;
(PID.TID 0000.0001) PTRACERS_ref = /* Reference vertical profile */
(PID.TID 0000.0001)    15 @  0.000000000000000E+00              /* K =  1: 15 */
(PID.TID 0000.0001)     ;
(PID.TID 0000.0001) PTRACERS_EvPrRn =/* tracer conc. in Evap. & Rain */
(PID.TID 0000.0001)                 1.234567000000000E+05
(PID.TID 0000.0001)     ;
(PID.TID 0000.0001)  -----------------------------------
(PID.TID 0000.0001)  tracer number :   56
(PID.TID 0000.0001) PTRACERS_names = /* Tracer short name */
(PID.TID 0000.0001)               'Phy35'
(PID.TID 0000.0001)     ;
(PID.TID 0000.0001) PTRACERS_long_names = /* Tracer long name */
(PID.TID 0000.0001)               ''
(PID.TID 0000.0001)     ;
(PID.TID 0000.0001) PTRACERS_ioLabel = /* tracer IO Label */
(PID.TID 0000.0001)               '56'
(PID.TID 0000.0001)     ;
(PID.TID 0000.0001) PTRACERS_advScheme = /* Advection Scheme */
(PID.TID 0000.0001)                      33
(PID.TID 0000.0001)     ;
(PID.TID 0000.0001) PTRACERS_ImplVertAdv = /* implicit vert. advection flag */
(PID.TID 0000.0001)                   F
(PID.TID 0000.0001)     ;
(PID.TID 0000.0001) PTRACERS_diffKh = /* Laplacian Diffusivity */
(PID.TID 0000.0001)                 0.000000000000000E+00
(PID.TID 0000.0001)     ;
(PID.TID 0000.0001) PTRACERS_diffK4 = /* Biharmonic Diffusivity */
(PID.TID 0000.0001)                 0.000000000000000E+00
(PID.TID 0000.0001)     ;
(PID.TID 0000.0001) PTRACERS_diffKrNr = /* Vertical Diffusivity */
(PID.TID 0000.0001)    15 @  1.000000000000000E-05              /* K =  1: 15 */
(PID.TID 0000.0001)     ;
(PID.TID 0000.0001) PTRACERS_useGMRedi = /* apply GM-Redi */
(PID.TID 0000.0001)                   T
(PID.TID 0000.0001)     ;
(PID.TID 0000.0001) PTRACERS_useDWNSLP = /* apply DOWN-SLOPE Flow */
(PID.TID 0000.0001)                   F
(PID.TID 0000.0001)     ;
(PID.TID 0000.0001) PTRACERS_useKPP = /* apply KPP scheme */
(PID.TID 0000.0001)                   F
(PID.TID 0000.0001)     ;
(PID.TID 0000.0001) PTRACERS_ref = /* Reference vertical profile */
(PID.TID 0000.0001)    15 @  0.000000000000000E+00              /* K =  1: 15 */
(PID.TID 0000.0001)     ;
(PID.TID 0000.0001) PTRACERS_EvPrRn =/* tracer conc. in Evap. & Rain */
(PID.TID 0000.0001)                 1.234567000000000E+05
(PID.TID 0000.0001)     ;
(PID.TID 0000.0001)  -----------------------------------
(PID.TID 0000.0001)  tracer number :   57
(PID.TID 0000.0001) PTRACERS_names = /* Tracer short name */
(PID.TID 0000.0001)               'Phy36'
(PID.TID 0000.0001)     ;
(PID.TID 0000.0001) PTRACERS_long_names = /* Tracer long name */
(PID.TID 0000.0001)               ''
(PID.TID 0000.0001)     ;
(PID.TID 0000.0001) PTRACERS_ioLabel = /* tracer IO Label */
(PID.TID 0000.0001)               '57'
(PID.TID 0000.0001)     ;
(PID.TID 0000.0001) PTRACERS_advScheme = /* Advection Scheme */
(PID.TID 0000.0001)                      33
(PID.TID 0000.0001)     ;
(PID.TID 0000.0001) PTRACERS_ImplVertAdv = /* implicit vert. advection flag */
(PID.TID 0000.0001)                   F
(PID.TID 0000.0001)     ;
(PID.TID 0000.0001) PTRACERS_diffKh = /* Laplacian Diffusivity */
(PID.TID 0000.0001)                 0.000000000000000E+00
(PID.TID 0000.0001)     ;
(PID.TID 0000.0001) PTRACERS_diffK4 = /* Biharmonic Diffusivity */
(PID.TID 0000.0001)                 0.000000000000000E+00
(PID.TID 0000.0001)     ;
(PID.TID 0000.0001) PTRACERS_diffKrNr = /* Vertical Diffusivity */
(PID.TID 0000.0001)    15 @  1.000000000000000E-05              /* K =  1: 15 */
(PID.TID 0000.0001)     ;
(PID.TID 0000.0001) PTRACERS_useGMRedi = /* apply GM-Redi */
(PID.TID 0000.0001)                   T
(PID.TID 0000.0001)     ;
(PID.TID 0000.0001) PTRACERS_useDWNSLP = /* apply DOWN-SLOPE Flow */
(PID.TID 0000.0001)                   F
(PID.TID 0000.0001)     ;
(PID.TID 0000.0001) PTRACERS_useKPP = /* apply KPP scheme */
(PID.TID 0000.0001)                   F
(PID.TID 0000.0001)     ;
(PID.TID 0000.0001) PTRACERS_ref = /* Reference vertical profile */
(PID.TID 0000.0001)    15 @  0.000000000000000E+00              /* K =  1: 15 */
(PID.TID 0000.0001)     ;
(PID.TID 0000.0001) PTRACERS_EvPrRn =/* tracer conc. in Evap. & Rain */
(PID.TID 0000.0001)                 1.234567000000000E+05
(PID.TID 0000.0001)     ;
(PID.TID 0000.0001)  -----------------------------------
(PID.TID 0000.0001)  tracer number :   58
(PID.TID 0000.0001) PTRACERS_names = /* Tracer short name */
(PID.TID 0000.0001)               'Phy37'
(PID.TID 0000.0001)     ;
(PID.TID 0000.0001) PTRACERS_long_names = /* Tracer long name */
(PID.TID 0000.0001)               ''
(PID.TID 0000.0001)     ;
(PID.TID 0000.0001) PTRACERS_ioLabel = /* tracer IO Label */
(PID.TID 0000.0001)               '58'
(PID.TID 0000.0001)     ;
(PID.TID 0000.0001) PTRACERS_advScheme = /* Advection Scheme */
(PID.TID 0000.0001)                      33
(PID.TID 0000.0001)     ;
(PID.TID 0000.0001) PTRACERS_ImplVertAdv = /* implicit vert. advection flag */
(PID.TID 0000.0001)                   F
(PID.TID 0000.0001)     ;
(PID.TID 0000.0001) PTRACERS_diffKh = /* Laplacian Diffusivity */
(PID.TID 0000.0001)                 0.000000000000000E+00
(PID.TID 0000.0001)     ;
(PID.TID 0000.0001) PTRACERS_diffK4 = /* Biharmonic Diffusivity */
(PID.TID 0000.0001)                 0.000000000000000E+00
(PID.TID 0000.0001)     ;
(PID.TID 0000.0001) PTRACERS_diffKrNr = /* Vertical Diffusivity */
(PID.TID 0000.0001)    15 @  1.000000000000000E-05              /* K =  1: 15 */
(PID.TID 0000.0001)     ;
(PID.TID 0000.0001) PTRACERS_useGMRedi = /* apply GM-Redi */
(PID.TID 0000.0001)                   T
(PID.TID 0000.0001)     ;
(PID.TID 0000.0001) PTRACERS_useDWNSLP = /* apply DOWN-SLOPE Flow */
(PID.TID 0000.0001)                   F
(PID.TID 0000.0001)     ;
(PID.TID 0000.0001) PTRACERS_useKPP = /* apply KPP scheme */
(PID.TID 0000.0001)                   F
(PID.TID 0000.0001)     ;
(PID.TID 0000.0001) PTRACERS_ref = /* Reference vertical profile */
(PID.TID 0000.0001)    15 @  0.000000000000000E+00              /* K =  1: 15 */
(PID.TID 0000.0001)     ;
(PID.TID 0000.0001) PTRACERS_EvPrRn =/* tracer conc. in Evap. & Rain */
(PID.TID 0000.0001)                 1.234567000000000E+05
(PID.TID 0000.0001)     ;
(PID.TID 0000.0001)  -----------------------------------
(PID.TID 0000.0001)  tracer number :   59
(PID.TID 0000.0001) PTRACERS_names = /* Tracer short name */
(PID.TID 0000.0001)               'Phy38'
(PID.TID 0000.0001)     ;
(PID.TID 0000.0001) PTRACERS_long_names = /* Tracer long name */
(PID.TID 0000.0001)               ''
(PID.TID 0000.0001)     ;
(PID.TID 0000.0001) PTRACERS_ioLabel = /* tracer IO Label */
(PID.TID 0000.0001)               '59'
(PID.TID 0000.0001)     ;
(PID.TID 0000.0001) PTRACERS_advScheme = /* Advection Scheme */
(PID.TID 0000.0001)                      33
(PID.TID 0000.0001)     ;
(PID.TID 0000.0001) PTRACERS_ImplVertAdv = /* implicit vert. advection flag */
(PID.TID 0000.0001)                   F
(PID.TID 0000.0001)     ;
(PID.TID 0000.0001) PTRACERS_diffKh = /* Laplacian Diffusivity */
(PID.TID 0000.0001)                 0.000000000000000E+00
(PID.TID 0000.0001)     ;
(PID.TID 0000.0001) PTRACERS_diffK4 = /* Biharmonic Diffusivity */
(PID.TID 0000.0001)                 0.000000000000000E+00
(PID.TID 0000.0001)     ;
(PID.TID 0000.0001) PTRACERS_diffKrNr = /* Vertical Diffusivity */
(PID.TID 0000.0001)    15 @  1.000000000000000E-05              /* K =  1: 15 */
(PID.TID 0000.0001)     ;
(PID.TID 0000.0001) PTRACERS_useGMRedi = /* apply GM-Redi */
(PID.TID 0000.0001)                   T
(PID.TID 0000.0001)     ;
(PID.TID 0000.0001) PTRACERS_useDWNSLP = /* apply DOWN-SLOPE Flow */
(PID.TID 0000.0001)                   F
(PID.TID 0000.0001)     ;
(PID.TID 0000.0001) PTRACERS_useKPP = /* apply KPP scheme */
(PID.TID 0000.0001)                   F
(PID.TID 0000.0001)     ;
(PID.TID 0000.0001) PTRACERS_ref = /* Reference vertical profile */
(PID.TID 0000.0001)    15 @  0.000000000000000E+00              /* K =  1: 15 */
(PID.TID 0000.0001)     ;
(PID.TID 0000.0001) PTRACERS_EvPrRn =/* tracer conc. in Evap. & Rain */
(PID.TID 0000.0001)                 1.234567000000000E+05
(PID.TID 0000.0001)     ;
(PID.TID 0000.0001)  -----------------------------------
(PID.TID 0000.0001)  tracer number :   60
(PID.TID 0000.0001) PTRACERS_names = /* Tracer short name */
(PID.TID 0000.0001)               'Phy39'
(PID.TID 0000.0001)     ;
(PID.TID 0000.0001) PTRACERS_long_names = /* Tracer long name */
(PID.TID 0000.0001)               ''
(PID.TID 0000.0001)     ;
(PID.TID 0000.0001) PTRACERS_ioLabel = /* tracer IO Label */
(PID.TID 0000.0001)               '60'
(PID.TID 0000.0001)     ;
(PID.TID 0000.0001) PTRACERS_advScheme = /* Advection Scheme */
(PID.TID 0000.0001)                      33
(PID.TID 0000.0001)     ;
(PID.TID 0000.0001) PTRACERS_ImplVertAdv = /* implicit vert. advection flag */
(PID.TID 0000.0001)                   F
(PID.TID 0000.0001)     ;
(PID.TID 0000.0001) PTRACERS_diffKh = /* Laplacian Diffusivity */
(PID.TID 0000.0001)                 0.000000000000000E+00
(PID.TID 0000.0001)     ;
(PID.TID 0000.0001) PTRACERS_diffK4 = /* Biharmonic Diffusivity */
(PID.TID 0000.0001)                 0.000000000000000E+00
(PID.TID 0000.0001)     ;
(PID.TID 0000.0001) PTRACERS_diffKrNr = /* Vertical Diffusivity */
(PID.TID 0000.0001)    15 @  1.000000000000000E-05              /* K =  1: 15 */
(PID.TID 0000.0001)     ;
(PID.TID 0000.0001) PTRACERS_useGMRedi = /* apply GM-Redi */
(PID.TID 0000.0001)                   T
(PID.TID 0000.0001)     ;
(PID.TID 0000.0001) PTRACERS_useDWNSLP = /* apply DOWN-SLOPE Flow */
(PID.TID 0000.0001)                   F
(PID.TID 0000.0001)     ;
(PID.TID 0000.0001) PTRACERS_useKPP = /* apply KPP scheme */
(PID.TID 0000.0001)                   F
(PID.TID 0000.0001)     ;
(PID.TID 0000.0001) PTRACERS_ref = /* Reference vertical profile */
(PID.TID 0000.0001)    15 @  0.000000000000000E+00              /* K =  1: 15 */
(PID.TID 0000.0001)     ;
(PID.TID 0000.0001) PTRACERS_EvPrRn =/* tracer conc. in Evap. & Rain */
(PID.TID 0000.0001)                 1.234567000000000E+05
(PID.TID 0000.0001)     ;
(PID.TID 0000.0001)  -----------------------------------
(PID.TID 0000.0001)  tracer number :   61
(PID.TID 0000.0001) PTRACERS_names = /* Tracer short name */
(PID.TID 0000.0001)               'Phy40'
(PID.TID 0000.0001)     ;
(PID.TID 0000.0001) PTRACERS_long_names = /* Tracer long name */
(PID.TID 0000.0001)               ''
(PID.TID 0000.0001)     ;
(PID.TID 0000.0001) PTRACERS_ioLabel = /* tracer IO Label */
(PID.TID 0000.0001)               '61'
(PID.TID 0000.0001)     ;
(PID.TID 0000.0001) PTRACERS_advScheme = /* Advection Scheme */
(PID.TID 0000.0001)                      33
(PID.TID 0000.0001)     ;
(PID.TID 0000.0001) PTRACERS_ImplVertAdv = /* implicit vert. advection flag */
(PID.TID 0000.0001)                   F
(PID.TID 0000.0001)     ;
(PID.TID 0000.0001) PTRACERS_diffKh = /* Laplacian Diffusivity */
(PID.TID 0000.0001)                 0.000000000000000E+00
(PID.TID 0000.0001)     ;
(PID.TID 0000.0001) PTRACERS_diffK4 = /* Biharmonic Diffusivity */
(PID.TID 0000.0001)                 0.000000000000000E+00
(PID.TID 0000.0001)     ;
(PID.TID 0000.0001) PTRACERS_diffKrNr = /* Vertical Diffusivity */
(PID.TID 0000.0001)    15 @  1.000000000000000E-05              /* K =  1: 15 */
(PID.TID 0000.0001)     ;
(PID.TID 0000.0001) PTRACERS_useGMRedi = /* apply GM-Redi */
(PID.TID 0000.0001)                   T
(PID.TID 0000.0001)     ;
(PID.TID 0000.0001) PTRACERS_useDWNSLP = /* apply DOWN-SLOPE Flow */
(PID.TID 0000.0001)                   F
(PID.TID 0000.0001)     ;
(PID.TID 0000.0001) PTRACERS_useKPP = /* apply KPP scheme */
(PID.TID 0000.0001)                   F
(PID.TID 0000.0001)     ;
(PID.TID 0000.0001) PTRACERS_ref = /* Reference vertical profile */
(PID.TID 0000.0001)    15 @  0.000000000000000E+00              /* K =  1: 15 */
(PID.TID 0000.0001)     ;
(PID.TID 0000.0001) PTRACERS_EvPrRn =/* tracer conc. in Evap. & Rain */
(PID.TID 0000.0001)                 1.234567000000000E+05
(PID.TID 0000.0001)     ;
(PID.TID 0000.0001)  -----------------------------------
(PID.TID 0000.0001)  tracer number :   62
(PID.TID 0000.0001) PTRACERS_names = /* Tracer short name */
(PID.TID 0000.0001)               'Phy41'
(PID.TID 0000.0001)     ;
(PID.TID 0000.0001) PTRACERS_long_names = /* Tracer long name */
(PID.TID 0000.0001)               ''
(PID.TID 0000.0001)     ;
(PID.TID 0000.0001) PTRACERS_ioLabel = /* tracer IO Label */
(PID.TID 0000.0001)               '62'
(PID.TID 0000.0001)     ;
(PID.TID 0000.0001) PTRACERS_advScheme = /* Advection Scheme */
(PID.TID 0000.0001)                      33
(PID.TID 0000.0001)     ;
(PID.TID 0000.0001) PTRACERS_ImplVertAdv = /* implicit vert. advection flag */
(PID.TID 0000.0001)                   F
(PID.TID 0000.0001)     ;
(PID.TID 0000.0001) PTRACERS_diffKh = /* Laplacian Diffusivity */
(PID.TID 0000.0001)                 0.000000000000000E+00
(PID.TID 0000.0001)     ;
(PID.TID 0000.0001) PTRACERS_diffK4 = /* Biharmonic Diffusivity */
(PID.TID 0000.0001)                 0.000000000000000E+00
(PID.TID 0000.0001)     ;
(PID.TID 0000.0001) PTRACERS_diffKrNr = /* Vertical Diffusivity */
(PID.TID 0000.0001)    15 @  1.000000000000000E-05              /* K =  1: 15 */
(PID.TID 0000.0001)     ;
(PID.TID 0000.0001) PTRACERS_useGMRedi = /* apply GM-Redi */
(PID.TID 0000.0001)                   T
(PID.TID 0000.0001)     ;
(PID.TID 0000.0001) PTRACERS_useDWNSLP = /* apply DOWN-SLOPE Flow */
(PID.TID 0000.0001)                   F
(PID.TID 0000.0001)     ;
(PID.TID 0000.0001) PTRACERS_useKPP = /* apply KPP scheme */
(PID.TID 0000.0001)                   F
(PID.TID 0000.0001)     ;
(PID.TID 0000.0001) PTRACERS_ref = /* Reference vertical profile */
(PID.TID 0000.0001)    15 @  0.000000000000000E+00              /* K =  1: 15 */
(PID.TID 0000.0001)     ;
(PID.TID 0000.0001) PTRACERS_EvPrRn =/* tracer conc. in Evap. & Rain */
(PID.TID 0000.0001)                 1.234567000000000E+05
(PID.TID 0000.0001)     ;
(PID.TID 0000.0001)  -----------------------------------
(PID.TID 0000.0001)  tracer number :   63
(PID.TID 0000.0001) PTRACERS_names = /* Tracer short name */
(PID.TID 0000.0001)               'Phy42'
(PID.TID 0000.0001)     ;
(PID.TID 0000.0001) PTRACERS_long_names = /* Tracer long name */
(PID.TID 0000.0001)               ''
(PID.TID 0000.0001)     ;
(PID.TID 0000.0001) PTRACERS_ioLabel = /* tracer IO Label */
(PID.TID 0000.0001)               '63'
(PID.TID 0000.0001)     ;
(PID.TID 0000.0001) PTRACERS_advScheme = /* Advection Scheme */
(PID.TID 0000.0001)                      33
(PID.TID 0000.0001)     ;
(PID.TID 0000.0001) PTRACERS_ImplVertAdv = /* implicit vert. advection flag */
(PID.TID 0000.0001)                   F
(PID.TID 0000.0001)     ;
(PID.TID 0000.0001) PTRACERS_diffKh = /* Laplacian Diffusivity */
(PID.TID 0000.0001)                 0.000000000000000E+00
(PID.TID 0000.0001)     ;
(PID.TID 0000.0001) PTRACERS_diffK4 = /* Biharmonic Diffusivity */
(PID.TID 0000.0001)                 0.000000000000000E+00
(PID.TID 0000.0001)     ;
(PID.TID 0000.0001) PTRACERS_diffKrNr = /* Vertical Diffusivity */
(PID.TID 0000.0001)    15 @  1.000000000000000E-05              /* K =  1: 15 */
(PID.TID 0000.0001)     ;
(PID.TID 0000.0001) PTRACERS_useGMRedi = /* apply GM-Redi */
(PID.TID 0000.0001)                   T
(PID.TID 0000.0001)     ;
(PID.TID 0000.0001) PTRACERS_useDWNSLP = /* apply DOWN-SLOPE Flow */
(PID.TID 0000.0001)                   F
(PID.TID 0000.0001)     ;
(PID.TID 0000.0001) PTRACERS_useKPP = /* apply KPP scheme */
(PID.TID 0000.0001)                   F
(PID.TID 0000.0001)     ;
(PID.TID 0000.0001) PTRACERS_ref = /* Reference vertical profile */
(PID.TID 0000.0001)    15 @  0.000000000000000E+00              /* K =  1: 15 */
(PID.TID 0000.0001)     ;
(PID.TID 0000.0001) PTRACERS_EvPrRn =/* tracer conc. in Evap. & Rain */
(PID.TID 0000.0001)                 1.234567000000000E+05
(PID.TID 0000.0001)     ;
(PID.TID 0000.0001)  -----------------------------------
(PID.TID 0000.0001)  tracer number :   64
(PID.TID 0000.0001) PTRACERS_names = /* Tracer short name */
(PID.TID 0000.0001)               'Phy43'
(PID.TID 0000.0001)     ;
(PID.TID 0000.0001) PTRACERS_long_names = /* Tracer long name */
(PID.TID 0000.0001)               ''
(PID.TID 0000.0001)     ;
(PID.TID 0000.0001) PTRACERS_ioLabel = /* tracer IO Label */
(PID.TID 0000.0001)               '64'
(PID.TID 0000.0001)     ;
(PID.TID 0000.0001) PTRACERS_advScheme = /* Advection Scheme */
(PID.TID 0000.0001)                      33
(PID.TID 0000.0001)     ;
(PID.TID 0000.0001) PTRACERS_ImplVertAdv = /* implicit vert. advection flag */
(PID.TID 0000.0001)                   F
(PID.TID 0000.0001)     ;
(PID.TID 0000.0001) PTRACERS_diffKh = /* Laplacian Diffusivity */
(PID.TID 0000.0001)                 0.000000000000000E+00
(PID.TID 0000.0001)     ;
(PID.TID 0000.0001) PTRACERS_diffK4 = /* Biharmonic Diffusivity */
(PID.TID 0000.0001)                 0.000000000000000E+00
(PID.TID 0000.0001)     ;
(PID.TID 0000.0001) PTRACERS_diffKrNr = /* Vertical Diffusivity */
(PID.TID 0000.0001)    15 @  1.000000000000000E-05              /* K =  1: 15 */
(PID.TID 0000.0001)     ;
(PID.TID 0000.0001) PTRACERS_useGMRedi = /* apply GM-Redi */
(PID.TID 0000.0001)                   T
(PID.TID 0000.0001)     ;
(PID.TID 0000.0001) PTRACERS_useDWNSLP = /* apply DOWN-SLOPE Flow */
(PID.TID 0000.0001)                   F
(PID.TID 0000.0001)     ;
(PID.TID 0000.0001) PTRACERS_useKPP = /* apply KPP scheme */
(PID.TID 0000.0001)                   F
(PID.TID 0000.0001)     ;
(PID.TID 0000.0001) PTRACERS_ref = /* Reference vertical profile */
(PID.TID 0000.0001)    15 @  0.000000000000000E+00              /* K =  1: 15 */
(PID.TID 0000.0001)     ;
(PID.TID 0000.0001) PTRACERS_EvPrRn =/* tracer conc. in Evap. & Rain */
(PID.TID 0000.0001)                 1.234567000000000E+05
(PID.TID 0000.0001)     ;
(PID.TID 0000.0001)  -----------------------------------
(PID.TID 0000.0001)  tracer number :   65
(PID.TID 0000.0001) PTRACERS_names = /* Tracer short name */
(PID.TID 0000.0001)               'Phy44'
(PID.TID 0000.0001)     ;
(PID.TID 0000.0001) PTRACERS_long_names = /* Tracer long name */
(PID.TID 0000.0001)               ''
(PID.TID 0000.0001)     ;
(PID.TID 0000.0001) PTRACERS_ioLabel = /* tracer IO Label */
(PID.TID 0000.0001)               '65'
(PID.TID 0000.0001)     ;
(PID.TID 0000.0001) PTRACERS_advScheme = /* Advection Scheme */
(PID.TID 0000.0001)                      33
(PID.TID 0000.0001)     ;
(PID.TID 0000.0001) PTRACERS_ImplVertAdv = /* implicit vert. advection flag */
(PID.TID 0000.0001)                   F
(PID.TID 0000.0001)     ;
(PID.TID 0000.0001) PTRACERS_diffKh = /* Laplacian Diffusivity */
(PID.TID 0000.0001)                 0.000000000000000E+00
(PID.TID 0000.0001)     ;
(PID.TID 0000.0001) PTRACERS_diffK4 = /* Biharmonic Diffusivity */
(PID.TID 0000.0001)                 0.000000000000000E+00
(PID.TID 0000.0001)     ;
(PID.TID 0000.0001) PTRACERS_diffKrNr = /* Vertical Diffusivity */
(PID.TID 0000.0001)    15 @  1.000000000000000E-05              /* K =  1: 15 */
(PID.TID 0000.0001)     ;
(PID.TID 0000.0001) PTRACERS_useGMRedi = /* apply GM-Redi */
(PID.TID 0000.0001)                   T
(PID.TID 0000.0001)     ;
(PID.TID 0000.0001) PTRACERS_useDWNSLP = /* apply DOWN-SLOPE Flow */
(PID.TID 0000.0001)                   F
(PID.TID 0000.0001)     ;
(PID.TID 0000.0001) PTRACERS_useKPP = /* apply KPP scheme */
(PID.TID 0000.0001)                   F
(PID.TID 0000.0001)     ;
(PID.TID 0000.0001) PTRACERS_ref = /* Reference vertical profile */
(PID.TID 0000.0001)    15 @  0.000000000000000E+00              /* K =  1: 15 */
(PID.TID 0000.0001)     ;
(PID.TID 0000.0001) PTRACERS_EvPrRn =/* tracer conc. in Evap. & Rain */
(PID.TID 0000.0001)                 1.234567000000000E+05
(PID.TID 0000.0001)     ;
(PID.TID 0000.0001)  -----------------------------------
(PID.TID 0000.0001)  tracer number :   66
(PID.TID 0000.0001) PTRACERS_names = /* Tracer short name */
(PID.TID 0000.0001)               'Phy45'
(PID.TID 0000.0001)     ;
(PID.TID 0000.0001) PTRACERS_long_names = /* Tracer long name */
(PID.TID 0000.0001)               ''
(PID.TID 0000.0001)     ;
(PID.TID 0000.0001) PTRACERS_ioLabel = /* tracer IO Label */
(PID.TID 0000.0001)               '66'
(PID.TID 0000.0001)     ;
(PID.TID 0000.0001) PTRACERS_advScheme = /* Advection Scheme */
(PID.TID 0000.0001)                      33
(PID.TID 0000.0001)     ;
(PID.TID 0000.0001) PTRACERS_ImplVertAdv = /* implicit vert. advection flag */
(PID.TID 0000.0001)                   F
(PID.TID 0000.0001)     ;
(PID.TID 0000.0001) PTRACERS_diffKh = /* Laplacian Diffusivity */
(PID.TID 0000.0001)                 0.000000000000000E+00
(PID.TID 0000.0001)     ;
(PID.TID 0000.0001) PTRACERS_diffK4 = /* Biharmonic Diffusivity */
(PID.TID 0000.0001)                 0.000000000000000E+00
(PID.TID 0000.0001)     ;
(PID.TID 0000.0001) PTRACERS_diffKrNr = /* Vertical Diffusivity */
(PID.TID 0000.0001)    15 @  1.000000000000000E-05              /* K =  1: 15 */
(PID.TID 0000.0001)     ;
(PID.TID 0000.0001) PTRACERS_useGMRedi = /* apply GM-Redi */
(PID.TID 0000.0001)                   T
(PID.TID 0000.0001)     ;
(PID.TID 0000.0001) PTRACERS_useDWNSLP = /* apply DOWN-SLOPE Flow */
(PID.TID 0000.0001)                   F
(PID.TID 0000.0001)     ;
(PID.TID 0000.0001) PTRACERS_useKPP = /* apply KPP scheme */
(PID.TID 0000.0001)                   F
(PID.TID 0000.0001)     ;
(PID.TID 0000.0001) PTRACERS_ref = /* Reference vertical profile */
(PID.TID 0000.0001)    15 @  0.000000000000000E+00              /* K =  1: 15 */
(PID.TID 0000.0001)     ;
(PID.TID 0000.0001) PTRACERS_EvPrRn =/* tracer conc. in Evap. & Rain */
(PID.TID 0000.0001)                 1.234567000000000E+05
(PID.TID 0000.0001)     ;
(PID.TID 0000.0001)  -----------------------------------
(PID.TID 0000.0001)  tracer number :   67
(PID.TID 0000.0001) PTRACERS_names = /* Tracer short name */
(PID.TID 0000.0001)               'Phy46'
(PID.TID 0000.0001)     ;
(PID.TID 0000.0001) PTRACERS_long_names = /* Tracer long name */
(PID.TID 0000.0001)               ''
(PID.TID 0000.0001)     ;
(PID.TID 0000.0001) PTRACERS_ioLabel = /* tracer IO Label */
(PID.TID 0000.0001)               '67'
(PID.TID 0000.0001)     ;
(PID.TID 0000.0001) PTRACERS_advScheme = /* Advection Scheme */
(PID.TID 0000.0001)                      33
(PID.TID 0000.0001)     ;
(PID.TID 0000.0001) PTRACERS_ImplVertAdv = /* implicit vert. advection flag */
(PID.TID 0000.0001)                   F
(PID.TID 0000.0001)     ;
(PID.TID 0000.0001) PTRACERS_diffKh = /* Laplacian Diffusivity */
(PID.TID 0000.0001)                 0.000000000000000E+00
(PID.TID 0000.0001)     ;
(PID.TID 0000.0001) PTRACERS_diffK4 = /* Biharmonic Diffusivity */
(PID.TID 0000.0001)                 0.000000000000000E+00
(PID.TID 0000.0001)     ;
(PID.TID 0000.0001) PTRACERS_diffKrNr = /* Vertical Diffusivity */
(PID.TID 0000.0001)    15 @  1.000000000000000E-05              /* K =  1: 15 */
(PID.TID 0000.0001)     ;
(PID.TID 0000.0001) PTRACERS_useGMRedi = /* apply GM-Redi */
(PID.TID 0000.0001)                   T
(PID.TID 0000.0001)     ;
(PID.TID 0000.0001) PTRACERS_useDWNSLP = /* apply DOWN-SLOPE Flow */
(PID.TID 0000.0001)                   F
(PID.TID 0000.0001)     ;
(PID.TID 0000.0001) PTRACERS_useKPP = /* apply KPP scheme */
(PID.TID 0000.0001)                   F
(PID.TID 0000.0001)     ;
(PID.TID 0000.0001) PTRACERS_ref = /* Reference vertical profile */
(PID.TID 0000.0001)    15 @  0.000000000000000E+00              /* K =  1: 15 */
(PID.TID 0000.0001)     ;
(PID.TID 0000.0001) PTRACERS_EvPrRn =/* tracer conc. in Evap. & Rain */
(PID.TID 0000.0001)                 1.234567000000000E+05
(PID.TID 0000.0001)     ;
(PID.TID 0000.0001)  -----------------------------------
(PID.TID 0000.0001)  tracer number :   68
(PID.TID 0000.0001) PTRACERS_names = /* Tracer short name */
(PID.TID 0000.0001)               'Phy47'
(PID.TID 0000.0001)     ;
(PID.TID 0000.0001) PTRACERS_long_names = /* Tracer long name */
(PID.TID 0000.0001)               ''
(PID.TID 0000.0001)     ;
(PID.TID 0000.0001) PTRACERS_ioLabel = /* tracer IO Label */
(PID.TID 0000.0001)               '68'
(PID.TID 0000.0001)     ;
(PID.TID 0000.0001) PTRACERS_advScheme = /* Advection Scheme */
(PID.TID 0000.0001)                      33
(PID.TID 0000.0001)     ;
(PID.TID 0000.0001) PTRACERS_ImplVertAdv = /* implicit vert. advection flag */
(PID.TID 0000.0001)                   F
(PID.TID 0000.0001)     ;
(PID.TID 0000.0001) PTRACERS_diffKh = /* Laplacian Diffusivity */
(PID.TID 0000.0001)                 0.000000000000000E+00
(PID.TID 0000.0001)     ;
(PID.TID 0000.0001) PTRACERS_diffK4 = /* Biharmonic Diffusivity */
(PID.TID 0000.0001)                 0.000000000000000E+00
(PID.TID 0000.0001)     ;
(PID.TID 0000.0001) PTRACERS_diffKrNr = /* Vertical Diffusivity */
(PID.TID 0000.0001)    15 @  1.000000000000000E-05              /* K =  1: 15 */
(PID.TID 0000.0001)     ;
(PID.TID 0000.0001) PTRACERS_useGMRedi = /* apply GM-Redi */
(PID.TID 0000.0001)                   T
(PID.TID 0000.0001)     ;
(PID.TID 0000.0001) PTRACERS_useDWNSLP = /* apply DOWN-SLOPE Flow */
(PID.TID 0000.0001)                   F
(PID.TID 0000.0001)     ;
(PID.TID 0000.0001) PTRACERS_useKPP = /* apply KPP scheme */
(PID.TID 0000.0001)                   F
(PID.TID 0000.0001)     ;
(PID.TID 0000.0001) PTRACERS_ref = /* Reference vertical profile */
(PID.TID 0000.0001)    15 @  0.000000000000000E+00              /* K =  1: 15 */
(PID.TID 0000.0001)     ;
(PID.TID 0000.0001) PTRACERS_EvPrRn =/* tracer conc. in Evap. & Rain */
(PID.TID 0000.0001)                 1.234567000000000E+05
(PID.TID 0000.0001)     ;
(PID.TID 0000.0001)  -----------------------------------
(PID.TID 0000.0001)  tracer number :   69
(PID.TID 0000.0001) PTRACERS_names = /* Tracer short name */
(PID.TID 0000.0001)               'Phy48'
(PID.TID 0000.0001)     ;
(PID.TID 0000.0001) PTRACERS_long_names = /* Tracer long name */
(PID.TID 0000.0001)               ''
(PID.TID 0000.0001)     ;
(PID.TID 0000.0001) PTRACERS_ioLabel = /* tracer IO Label */
(PID.TID 0000.0001)               '69'
(PID.TID 0000.0001)     ;
(PID.TID 0000.0001) PTRACERS_advScheme = /* Advection Scheme */
(PID.TID 0000.0001)                      33
(PID.TID 0000.0001)     ;
(PID.TID 0000.0001) PTRACERS_ImplVertAdv = /* implicit vert. advection flag */
(PID.TID 0000.0001)                   F
(PID.TID 0000.0001)     ;
(PID.TID 0000.0001) PTRACERS_diffKh = /* Laplacian Diffusivity */
(PID.TID 0000.0001)                 0.000000000000000E+00
(PID.TID 0000.0001)     ;
(PID.TID 0000.0001) PTRACERS_diffK4 = /* Biharmonic Diffusivity */
(PID.TID 0000.0001)                 0.000000000000000E+00
(PID.TID 0000.0001)     ;
(PID.TID 0000.0001) PTRACERS_diffKrNr = /* Vertical Diffusivity */
(PID.TID 0000.0001)    15 @  1.000000000000000E-05              /* K =  1: 15 */
(PID.TID 0000.0001)     ;
(PID.TID 0000.0001) PTRACERS_useGMRedi = /* apply GM-Redi */
(PID.TID 0000.0001)                   T
(PID.TID 0000.0001)     ;
(PID.TID 0000.0001) PTRACERS_useDWNSLP = /* apply DOWN-SLOPE Flow */
(PID.TID 0000.0001)                   F
(PID.TID 0000.0001)     ;
(PID.TID 0000.0001) PTRACERS_useKPP = /* apply KPP scheme */
(PID.TID 0000.0001)                   F
(PID.TID 0000.0001)     ;
(PID.TID 0000.0001) PTRACERS_ref = /* Reference vertical profile */
(PID.TID 0000.0001)    15 @  0.000000000000000E+00              /* K =  1: 15 */
(PID.TID 0000.0001)     ;
(PID.TID 0000.0001) PTRACERS_EvPrRn =/* tracer conc. in Evap. & Rain */
(PID.TID 0000.0001)                 1.234567000000000E+05
(PID.TID 0000.0001)     ;
(PID.TID 0000.0001)  -----------------------------------
(PID.TID 0000.0001)  tracer number :   70
(PID.TID 0000.0001) PTRACERS_names = /* Tracer short name */
(PID.TID 0000.0001)               'Phy49'
(PID.TID 0000.0001)     ;
(PID.TID 0000.0001) PTRACERS_long_names = /* Tracer long name */
(PID.TID 0000.0001)               ''
(PID.TID 0000.0001)     ;
(PID.TID 0000.0001) PTRACERS_ioLabel = /* tracer IO Label */
(PID.TID 0000.0001)               '70'
(PID.TID 0000.0001)     ;
(PID.TID 0000.0001) PTRACERS_advScheme = /* Advection Scheme */
(PID.TID 0000.0001)                      33
(PID.TID 0000.0001)     ;
(PID.TID 0000.0001) PTRACERS_ImplVertAdv = /* implicit vert. advection flag */
(PID.TID 0000.0001)                   F
(PID.TID 0000.0001)     ;
(PID.TID 0000.0001) PTRACERS_diffKh = /* Laplacian Diffusivity */
(PID.TID 0000.0001)                 0.000000000000000E+00
(PID.TID 0000.0001)     ;
(PID.TID 0000.0001) PTRACERS_diffK4 = /* Biharmonic Diffusivity */
(PID.TID 0000.0001)                 0.000000000000000E+00
(PID.TID 0000.0001)     ;
(PID.TID 0000.0001) PTRACERS_diffKrNr = /* Vertical Diffusivity */
(PID.TID 0000.0001)    15 @  1.000000000000000E-05              /* K =  1: 15 */
(PID.TID 0000.0001)     ;
(PID.TID 0000.0001) PTRACERS_useGMRedi = /* apply GM-Redi */
(PID.TID 0000.0001)                   T
(PID.TID 0000.0001)     ;
(PID.TID 0000.0001) PTRACERS_useDWNSLP = /* apply DOWN-SLOPE Flow */
(PID.TID 0000.0001)                   F
(PID.TID 0000.0001)     ;
(PID.TID 0000.0001) PTRACERS_useKPP = /* apply KPP scheme */
(PID.TID 0000.0001)                   F
(PID.TID 0000.0001)     ;
(PID.TID 0000.0001) PTRACERS_ref = /* Reference vertical profile */
(PID.TID 0000.0001)    15 @  0.000000000000000E+00              /* K =  1: 15 */
(PID.TID 0000.0001)     ;
(PID.TID 0000.0001) PTRACERS_EvPrRn =/* tracer conc. in Evap. & Rain */
(PID.TID 0000.0001)                 1.234567000000000E+05
(PID.TID 0000.0001)     ;
(PID.TID 0000.0001)  -----------------------------------
(PID.TID 0000.0001)  tracer number :   71
(PID.TID 0000.0001) PTRACERS_names = /* Tracer short name */
(PID.TID 0000.0001)               'Phy50'
(PID.TID 0000.0001)     ;
(PID.TID 0000.0001) PTRACERS_long_names = /* Tracer long name */
(PID.TID 0000.0001)               ''
(PID.TID 0000.0001)     ;
(PID.TID 0000.0001) PTRACERS_ioLabel = /* tracer IO Label */
(PID.TID 0000.0001)               '71'
(PID.TID 0000.0001)     ;
(PID.TID 0000.0001) PTRACERS_advScheme = /* Advection Scheme */
(PID.TID 0000.0001)                      33
(PID.TID 0000.0001)     ;
(PID.TID 0000.0001) PTRACERS_ImplVertAdv = /* implicit vert. advection flag */
(PID.TID 0000.0001)                   F
(PID.TID 0000.0001)     ;
(PID.TID 0000.0001) PTRACERS_diffKh = /* Laplacian Diffusivity */
(PID.TID 0000.0001)                 0.000000000000000E+00
(PID.TID 0000.0001)     ;
(PID.TID 0000.0001) PTRACERS_diffK4 = /* Biharmonic Diffusivity */
(PID.TID 0000.0001)                 0.000000000000000E+00
(PID.TID 0000.0001)     ;
(PID.TID 0000.0001) PTRACERS_diffKrNr = /* Vertical Diffusivity */
(PID.TID 0000.0001)    15 @  1.000000000000000E-05              /* K =  1: 15 */
(PID.TID 0000.0001)     ;
(PID.TID 0000.0001) PTRACERS_useGMRedi = /* apply GM-Redi */
(PID.TID 0000.0001)                   T
(PID.TID 0000.0001)     ;
(PID.TID 0000.0001) PTRACERS_useDWNSLP = /* apply DOWN-SLOPE Flow */
(PID.TID 0000.0001)                   F
(PID.TID 0000.0001)     ;
(PID.TID 0000.0001) PTRACERS_useKPP = /* apply KPP scheme */
(PID.TID 0000.0001)                   F
(PID.TID 0000.0001)     ;
(PID.TID 0000.0001) PTRACERS_ref = /* Reference vertical profile */
(PID.TID 0000.0001)    15 @  0.000000000000000E+00              /* K =  1: 15 */
(PID.TID 0000.0001)     ;
(PID.TID 0000.0001) PTRACERS_EvPrRn =/* tracer conc. in Evap. & Rain */
(PID.TID 0000.0001)                 1.234567000000000E+05
(PID.TID 0000.0001)     ;
(PID.TID 0000.0001)  -----------------------------------
(PID.TID 0000.0001)  tracer number :   72
(PID.TID 0000.0001) PTRACERS_names = /* Tracer short name */
(PID.TID 0000.0001)               'Phy51'
(PID.TID 0000.0001)     ;
(PID.TID 0000.0001) PTRACERS_long_names = /* Tracer long name */
(PID.TID 0000.0001)               ''
(PID.TID 0000.0001)     ;
(PID.TID 0000.0001) PTRACERS_ioLabel = /* tracer IO Label */
(PID.TID 0000.0001)               '72'
(PID.TID 0000.0001)     ;
(PID.TID 0000.0001) PTRACERS_advScheme = /* Advection Scheme */
(PID.TID 0000.0001)                      33
(PID.TID 0000.0001)     ;
(PID.TID 0000.0001) PTRACERS_ImplVertAdv = /* implicit vert. advection flag */
(PID.TID 0000.0001)                   F
(PID.TID 0000.0001)     ;
(PID.TID 0000.0001) PTRACERS_diffKh = /* Laplacian Diffusivity */
(PID.TID 0000.0001)                 0.000000000000000E+00
(PID.TID 0000.0001)     ;
(PID.TID 0000.0001) PTRACERS_diffK4 = /* Biharmonic Diffusivity */
(PID.TID 0000.0001)                 0.000000000000000E+00
(PID.TID 0000.0001)     ;
(PID.TID 0000.0001) PTRACERS_diffKrNr = /* Vertical Diffusivity */
(PID.TID 0000.0001)    15 @  1.000000000000000E-05              /* K =  1: 15 */
(PID.TID 0000.0001)     ;
(PID.TID 0000.0001) PTRACERS_useGMRedi = /* apply GM-Redi */
(PID.TID 0000.0001)                   T
(PID.TID 0000.0001)     ;
(PID.TID 0000.0001) PTRACERS_useDWNSLP = /* apply DOWN-SLOPE Flow */
(PID.TID 0000.0001)                   F
(PID.TID 0000.0001)     ;
(PID.TID 0000.0001) PTRACERS_useKPP = /* apply KPP scheme */
(PID.TID 0000.0001)                   F
(PID.TID 0000.0001)     ;
(PID.TID 0000.0001) PTRACERS_ref = /* Reference vertical profile */
(PID.TID 0000.0001)    15 @  0.000000000000000E+00              /* K =  1: 15 */
(PID.TID 0000.0001)     ;
(PID.TID 0000.0001) PTRACERS_EvPrRn =/* tracer conc. in Evap. & Rain */
(PID.TID 0000.0001)                 1.234567000000000E+05
(PID.TID 0000.0001)     ;
(PID.TID 0000.0001)  -----------------------------------
(PID.TID 0000.0001)  tracer number :   73
(PID.TID 0000.0001) PTRACERS_names = /* Tracer short name */
(PID.TID 0000.0001)               'Phy52'
(PID.TID 0000.0001)     ;
(PID.TID 0000.0001) PTRACERS_long_names = /* Tracer long name */
(PID.TID 0000.0001)               ''
(PID.TID 0000.0001)     ;
(PID.TID 0000.0001) PTRACERS_ioLabel = /* tracer IO Label */
(PID.TID 0000.0001)               '73'
(PID.TID 0000.0001)     ;
(PID.TID 0000.0001) PTRACERS_advScheme = /* Advection Scheme */
(PID.TID 0000.0001)                      33
(PID.TID 0000.0001)     ;
(PID.TID 0000.0001) PTRACERS_ImplVertAdv = /* implicit vert. advection flag */
(PID.TID 0000.0001)                   F
(PID.TID 0000.0001)     ;
(PID.TID 0000.0001) PTRACERS_diffKh = /* Laplacian Diffusivity */
(PID.TID 0000.0001)                 0.000000000000000E+00
(PID.TID 0000.0001)     ;
(PID.TID 0000.0001) PTRACERS_diffK4 = /* Biharmonic Diffusivity */
(PID.TID 0000.0001)                 0.000000000000000E+00
(PID.TID 0000.0001)     ;
(PID.TID 0000.0001) PTRACERS_diffKrNr = /* Vertical Diffusivity */
(PID.TID 0000.0001)    15 @  1.000000000000000E-05              /* K =  1: 15 */
(PID.TID 0000.0001)     ;
(PID.TID 0000.0001) PTRACERS_useGMRedi = /* apply GM-Redi */
(PID.TID 0000.0001)                   T
(PID.TID 0000.0001)     ;
(PID.TID 0000.0001) PTRACERS_useDWNSLP = /* apply DOWN-SLOPE Flow */
(PID.TID 0000.0001)                   F
(PID.TID 0000.0001)     ;
(PID.TID 0000.0001) PTRACERS_useKPP = /* apply KPP scheme */
(PID.TID 0000.0001)                   F
(PID.TID 0000.0001)     ;
(PID.TID 0000.0001) PTRACERS_ref = /* Reference vertical profile */
(PID.TID 0000.0001)    15 @  0.000000000000000E+00              /* K =  1: 15 */
(PID.TID 0000.0001)     ;
(PID.TID 0000.0001) PTRACERS_EvPrRn =/* tracer conc. in Evap. & Rain */
(PID.TID 0000.0001)                 1.234567000000000E+05
(PID.TID 0000.0001)     ;
(PID.TID 0000.0001)  -----------------------------------
(PID.TID 0000.0001)  tracer number :   74
(PID.TID 0000.0001) PTRACERS_names = /* Tracer short name */
(PID.TID 0000.0001)               'Phy53'
(PID.TID 0000.0001)     ;
(PID.TID 0000.0001) PTRACERS_long_names = /* Tracer long name */
(PID.TID 0000.0001)               ''
(PID.TID 0000.0001)     ;
(PID.TID 0000.0001) PTRACERS_ioLabel = /* tracer IO Label */
(PID.TID 0000.0001)               '74'
(PID.TID 0000.0001)     ;
(PID.TID 0000.0001) PTRACERS_advScheme = /* Advection Scheme */
(PID.TID 0000.0001)                      33
(PID.TID 0000.0001)     ;
(PID.TID 0000.0001) PTRACERS_ImplVertAdv = /* implicit vert. advection flag */
(PID.TID 0000.0001)                   F
(PID.TID 0000.0001)     ;
(PID.TID 0000.0001) PTRACERS_diffKh = /* Laplacian Diffusivity */
(PID.TID 0000.0001)                 0.000000000000000E+00
(PID.TID 0000.0001)     ;
(PID.TID 0000.0001) PTRACERS_diffK4 = /* Biharmonic Diffusivity */
(PID.TID 0000.0001)                 0.000000000000000E+00
(PID.TID 0000.0001)     ;
(PID.TID 0000.0001) PTRACERS_diffKrNr = /* Vertical Diffusivity */
(PID.TID 0000.0001)    15 @  1.000000000000000E-05              /* K =  1: 15 */
(PID.TID 0000.0001)     ;
(PID.TID 0000.0001) PTRACERS_useGMRedi = /* apply GM-Redi */
(PID.TID 0000.0001)                   T
(PID.TID 0000.0001)     ;
(PID.TID 0000.0001) PTRACERS_useDWNSLP = /* apply DOWN-SLOPE Flow */
(PID.TID 0000.0001)                   F
(PID.TID 0000.0001)     ;
(PID.TID 0000.0001) PTRACERS_useKPP = /* apply KPP scheme */
(PID.TID 0000.0001)                   F
(PID.TID 0000.0001)     ;
(PID.TID 0000.0001) PTRACERS_ref = /* Reference vertical profile */
(PID.TID 0000.0001)    15 @  0.000000000000000E+00              /* K =  1: 15 */
(PID.TID 0000.0001)     ;
(PID.TID 0000.0001) PTRACERS_EvPrRn =/* tracer conc. in Evap. & Rain */
(PID.TID 0000.0001)                 1.234567000000000E+05
(PID.TID 0000.0001)     ;
(PID.TID 0000.0001)  -----------------------------------
(PID.TID 0000.0001)  tracer number :   75
(PID.TID 0000.0001) PTRACERS_names = /* Tracer short name */
(PID.TID 0000.0001)               'Phy54'
(PID.TID 0000.0001)     ;
(PID.TID 0000.0001) PTRACERS_long_names = /* Tracer long name */
(PID.TID 0000.0001)               ''
(PID.TID 0000.0001)     ;
(PID.TID 0000.0001) PTRACERS_ioLabel = /* tracer IO Label */
(PID.TID 0000.0001)               '75'
(PID.TID 0000.0001)     ;
(PID.TID 0000.0001) PTRACERS_advScheme = /* Advection Scheme */
(PID.TID 0000.0001)                      33
(PID.TID 0000.0001)     ;
(PID.TID 0000.0001) PTRACERS_ImplVertAdv = /* implicit vert. advection flag */
(PID.TID 0000.0001)                   F
(PID.TID 0000.0001)     ;
(PID.TID 0000.0001) PTRACERS_diffKh = /* Laplacian Diffusivity */
(PID.TID 0000.0001)                 0.000000000000000E+00
(PID.TID 0000.0001)     ;
(PID.TID 0000.0001) PTRACERS_diffK4 = /* Biharmonic Diffusivity */
(PID.TID 0000.0001)                 0.000000000000000E+00
(PID.TID 0000.0001)     ;
(PID.TID 0000.0001) PTRACERS_diffKrNr = /* Vertical Diffusivity */
(PID.TID 0000.0001)    15 @  1.000000000000000E-05              /* K =  1: 15 */
(PID.TID 0000.0001)     ;
(PID.TID 0000.0001) PTRACERS_useGMRedi = /* apply GM-Redi */
(PID.TID 0000.0001)                   T
(PID.TID 0000.0001)     ;
(PID.TID 0000.0001) PTRACERS_useDWNSLP = /* apply DOWN-SLOPE Flow */
(PID.TID 0000.0001)                   F
(PID.TID 0000.0001)     ;
(PID.TID 0000.0001) PTRACERS_useKPP = /* apply KPP scheme */
(PID.TID 0000.0001)                   F
(PID.TID 0000.0001)     ;
(PID.TID 0000.0001) PTRACERS_ref = /* Reference vertical profile */
(PID.TID 0000.0001)    15 @  0.000000000000000E+00              /* K =  1: 15 */
(PID.TID 0000.0001)     ;
(PID.TID 0000.0001) PTRACERS_EvPrRn =/* tracer conc. in Evap. & Rain */
(PID.TID 0000.0001)                 1.234567000000000E+05
(PID.TID 0000.0001)     ;
(PID.TID 0000.0001)  -----------------------------------
(PID.TID 0000.0001)  tracer number :   76
(PID.TID 0000.0001) PTRACERS_names = /* Tracer short name */
(PID.TID 0000.0001)               'Phy55'
(PID.TID 0000.0001)     ;
(PID.TID 0000.0001) PTRACERS_long_names = /* Tracer long name */
(PID.TID 0000.0001)               ''
(PID.TID 0000.0001)     ;
(PID.TID 0000.0001) PTRACERS_ioLabel = /* tracer IO Label */
(PID.TID 0000.0001)               '76'
(PID.TID 0000.0001)     ;
(PID.TID 0000.0001) PTRACERS_advScheme = /* Advection Scheme */
(PID.TID 0000.0001)                      33
(PID.TID 0000.0001)     ;
(PID.TID 0000.0001) PTRACERS_ImplVertAdv = /* implicit vert. advection flag */
(PID.TID 0000.0001)                   F
(PID.TID 0000.0001)     ;
(PID.TID 0000.0001) PTRACERS_diffKh = /* Laplacian Diffusivity */
(PID.TID 0000.0001)                 0.000000000000000E+00
(PID.TID 0000.0001)     ;
(PID.TID 0000.0001) PTRACERS_diffK4 = /* Biharmonic Diffusivity */
(PID.TID 0000.0001)                 0.000000000000000E+00
(PID.TID 0000.0001)     ;
(PID.TID 0000.0001) PTRACERS_diffKrNr = /* Vertical Diffusivity */
(PID.TID 0000.0001)    15 @  1.000000000000000E-05              /* K =  1: 15 */
(PID.TID 0000.0001)     ;
(PID.TID 0000.0001) PTRACERS_useGMRedi = /* apply GM-Redi */
(PID.TID 0000.0001)                   T
(PID.TID 0000.0001)     ;
(PID.TID 0000.0001) PTRACERS_useDWNSLP = /* apply DOWN-SLOPE Flow */
(PID.TID 0000.0001)                   F
(PID.TID 0000.0001)     ;
(PID.TID 0000.0001) PTRACERS_useKPP = /* apply KPP scheme */
(PID.TID 0000.0001)                   F
(PID.TID 0000.0001)     ;
(PID.TID 0000.0001) PTRACERS_ref = /* Reference vertical profile */
(PID.TID 0000.0001)    15 @  0.000000000000000E+00              /* K =  1: 15 */
(PID.TID 0000.0001)     ;
(PID.TID 0000.0001) PTRACERS_EvPrRn =/* tracer conc. in Evap. & Rain */
(PID.TID 0000.0001)                 1.234567000000000E+05
(PID.TID 0000.0001)     ;
(PID.TID 0000.0001)  -----------------------------------
(PID.TID 0000.0001)  tracer number :   77
(PID.TID 0000.0001) PTRACERS_names = /* Tracer short name */
(PID.TID 0000.0001)               'Phy56'
(PID.TID 0000.0001)     ;
(PID.TID 0000.0001) PTRACERS_long_names = /* Tracer long name */
(PID.TID 0000.0001)               ''
(PID.TID 0000.0001)     ;
(PID.TID 0000.0001) PTRACERS_ioLabel = /* tracer IO Label */
(PID.TID 0000.0001)               '77'
(PID.TID 0000.0001)     ;
(PID.TID 0000.0001) PTRACERS_advScheme = /* Advection Scheme */
(PID.TID 0000.0001)                      33
(PID.TID 0000.0001)     ;
(PID.TID 0000.0001) PTRACERS_ImplVertAdv = /* implicit vert. advection flag */
(PID.TID 0000.0001)                   F
(PID.TID 0000.0001)     ;
(PID.TID 0000.0001) PTRACERS_diffKh = /* Laplacian Diffusivity */
(PID.TID 0000.0001)                 0.000000000000000E+00
(PID.TID 0000.0001)     ;
(PID.TID 0000.0001) PTRACERS_diffK4 = /* Biharmonic Diffusivity */
(PID.TID 0000.0001)                 0.000000000000000E+00
(PID.TID 0000.0001)     ;
(PID.TID 0000.0001) PTRACERS_diffKrNr = /* Vertical Diffusivity */
(PID.TID 0000.0001)    15 @  1.000000000000000E-05              /* K =  1: 15 */
(PID.TID 0000.0001)     ;
(PID.TID 0000.0001) PTRACERS_useGMRedi = /* apply GM-Redi */
(PID.TID 0000.0001)                   T
(PID.TID 0000.0001)     ;
(PID.TID 0000.0001) PTRACERS_useDWNSLP = /* apply DOWN-SLOPE Flow */
(PID.TID 0000.0001)                   F
(PID.TID 0000.0001)     ;
(PID.TID 0000.0001) PTRACERS_useKPP = /* apply KPP scheme */
(PID.TID 0000.0001)                   F
(PID.TID 0000.0001)     ;
(PID.TID 0000.0001) PTRACERS_ref = /* Reference vertical profile */
(PID.TID 0000.0001)    15 @  0.000000000000000E+00              /* K =  1: 15 */
(PID.TID 0000.0001)     ;
(PID.TID 0000.0001) PTRACERS_EvPrRn =/* tracer conc. in Evap. & Rain */
(PID.TID 0000.0001)                 1.234567000000000E+05
(PID.TID 0000.0001)     ;
(PID.TID 0000.0001)  -----------------------------------
(PID.TID 0000.0001)  tracer number :   78
(PID.TID 0000.0001) PTRACERS_names = /* Tracer short name */
(PID.TID 0000.0001)               'Phy57'
(PID.TID 0000.0001)     ;
(PID.TID 0000.0001) PTRACERS_long_names = /* Tracer long name */
(PID.TID 0000.0001)               ''
(PID.TID 0000.0001)     ;
(PID.TID 0000.0001) PTRACERS_ioLabel = /* tracer IO Label */
(PID.TID 0000.0001)               '78'
(PID.TID 0000.0001)     ;
(PID.TID 0000.0001) PTRACERS_advScheme = /* Advection Scheme */
(PID.TID 0000.0001)                      33
(PID.TID 0000.0001)     ;
(PID.TID 0000.0001) PTRACERS_ImplVertAdv = /* implicit vert. advection flag */
(PID.TID 0000.0001)                   F
(PID.TID 0000.0001)     ;
(PID.TID 0000.0001) PTRACERS_diffKh = /* Laplacian Diffusivity */
(PID.TID 0000.0001)                 0.000000000000000E+00
(PID.TID 0000.0001)     ;
(PID.TID 0000.0001) PTRACERS_diffK4 = /* Biharmonic Diffusivity */
(PID.TID 0000.0001)                 0.000000000000000E+00
(PID.TID 0000.0001)     ;
(PID.TID 0000.0001) PTRACERS_diffKrNr = /* Vertical Diffusivity */
(PID.TID 0000.0001)    15 @  1.000000000000000E-05              /* K =  1: 15 */
(PID.TID 0000.0001)     ;
(PID.TID 0000.0001) PTRACERS_useGMRedi = /* apply GM-Redi */
(PID.TID 0000.0001)                   T
(PID.TID 0000.0001)     ;
(PID.TID 0000.0001) PTRACERS_useDWNSLP = /* apply DOWN-SLOPE Flow */
(PID.TID 0000.0001)                   F
(PID.TID 0000.0001)     ;
(PID.TID 0000.0001) PTRACERS_useKPP = /* apply KPP scheme */
(PID.TID 0000.0001)                   F
(PID.TID 0000.0001)     ;
(PID.TID 0000.0001) PTRACERS_ref = /* Reference vertical profile */
(PID.TID 0000.0001)    15 @  0.000000000000000E+00              /* K =  1: 15 */
(PID.TID 0000.0001)     ;
(PID.TID 0000.0001) PTRACERS_EvPrRn =/* tracer conc. in Evap. & Rain */
(PID.TID 0000.0001)                 1.234567000000000E+05
(PID.TID 0000.0001)     ;
(PID.TID 0000.0001)  -----------------------------------
(PID.TID 0000.0001)  tracer number :   79
(PID.TID 0000.0001) PTRACERS_names = /* Tracer short name */
(PID.TID 0000.0001)               'Phy58'
(PID.TID 0000.0001)     ;
(PID.TID 0000.0001) PTRACERS_long_names = /* Tracer long name */
(PID.TID 0000.0001)               ''
(PID.TID 0000.0001)     ;
(PID.TID 0000.0001) PTRACERS_ioLabel = /* tracer IO Label */
(PID.TID 0000.0001)               '79'
(PID.TID 0000.0001)     ;
(PID.TID 0000.0001) PTRACERS_advScheme = /* Advection Scheme */
(PID.TID 0000.0001)                      33
(PID.TID 0000.0001)     ;
(PID.TID 0000.0001) PTRACERS_ImplVertAdv = /* implicit vert. advection flag */
(PID.TID 0000.0001)                   F
(PID.TID 0000.0001)     ;
(PID.TID 0000.0001) PTRACERS_diffKh = /* Laplacian Diffusivity */
(PID.TID 0000.0001)                 0.000000000000000E+00
(PID.TID 0000.0001)     ;
(PID.TID 0000.0001) PTRACERS_diffK4 = /* Biharmonic Diffusivity */
(PID.TID 0000.0001)                 0.000000000000000E+00
(PID.TID 0000.0001)     ;
(PID.TID 0000.0001) PTRACERS_diffKrNr = /* Vertical Diffusivity */
(PID.TID 0000.0001)    15 @  1.000000000000000E-05              /* K =  1: 15 */
(PID.TID 0000.0001)     ;
(PID.TID 0000.0001) PTRACERS_useGMRedi = /* apply GM-Redi */
(PID.TID 0000.0001)                   T
(PID.TID 0000.0001)     ;
(PID.TID 0000.0001) PTRACERS_useDWNSLP = /* apply DOWN-SLOPE Flow */
(PID.TID 0000.0001)                   F
(PID.TID 0000.0001)     ;
(PID.TID 0000.0001) PTRACERS_useKPP = /* apply KPP scheme */
(PID.TID 0000.0001)                   F
(PID.TID 0000.0001)     ;
(PID.TID 0000.0001) PTRACERS_ref = /* Reference vertical profile */
(PID.TID 0000.0001)    15 @  0.000000000000000E+00              /* K =  1: 15 */
(PID.TID 0000.0001)     ;
(PID.TID 0000.0001) PTRACERS_EvPrRn =/* tracer conc. in Evap. & Rain */
(PID.TID 0000.0001)                 1.234567000000000E+05
(PID.TID 0000.0001)     ;
(PID.TID 0000.0001)  -----------------------------------
(PID.TID 0000.0001)  tracer number :   80
(PID.TID 0000.0001) PTRACERS_names = /* Tracer short name */
(PID.TID 0000.0001)               'Phy59'
(PID.TID 0000.0001)     ;
(PID.TID 0000.0001) PTRACERS_long_names = /* Tracer long name */
(PID.TID 0000.0001)               ''
(PID.TID 0000.0001)     ;
(PID.TID 0000.0001) PTRACERS_ioLabel = /* tracer IO Label */
(PID.TID 0000.0001)               '80'
(PID.TID 0000.0001)     ;
(PID.TID 0000.0001) PTRACERS_advScheme = /* Advection Scheme */
(PID.TID 0000.0001)                      33
(PID.TID 0000.0001)     ;
(PID.TID 0000.0001) PTRACERS_ImplVertAdv = /* implicit vert. advection flag */
(PID.TID 0000.0001)                   F
(PID.TID 0000.0001)     ;
(PID.TID 0000.0001) PTRACERS_diffKh = /* Laplacian Diffusivity */
(PID.TID 0000.0001)                 0.000000000000000E+00
(PID.TID 0000.0001)     ;
(PID.TID 0000.0001) PTRACERS_diffK4 = /* Biharmonic Diffusivity */
(PID.TID 0000.0001)                 0.000000000000000E+00
(PID.TID 0000.0001)     ;
(PID.TID 0000.0001) PTRACERS_diffKrNr = /* Vertical Diffusivity */
(PID.TID 0000.0001)    15 @  1.000000000000000E-05              /* K =  1: 15 */
(PID.TID 0000.0001)     ;
(PID.TID 0000.0001) PTRACERS_useGMRedi = /* apply GM-Redi */
(PID.TID 0000.0001)                   T
(PID.TID 0000.0001)     ;
(PID.TID 0000.0001) PTRACERS_useDWNSLP = /* apply DOWN-SLOPE Flow */
(PID.TID 0000.0001)                   F
(PID.TID 0000.0001)     ;
(PID.TID 0000.0001) PTRACERS_useKPP = /* apply KPP scheme */
(PID.TID 0000.0001)                   F
(PID.TID 0000.0001)     ;
(PID.TID 0000.0001) PTRACERS_ref = /* Reference vertical profile */
(PID.TID 0000.0001)    15 @  0.000000000000000E+00              /* K =  1: 15 */
(PID.TID 0000.0001)     ;
(PID.TID 0000.0001) PTRACERS_EvPrRn =/* tracer conc. in Evap. & Rain */
(PID.TID 0000.0001)                 1.234567000000000E+05
(PID.TID 0000.0001)     ;
(PID.TID 0000.0001)  -----------------------------------
(PID.TID 0000.0001)  tracer number :   81
(PID.TID 0000.0001) PTRACERS_names = /* Tracer short name */
(PID.TID 0000.0001)               'Phy60'
(PID.TID 0000.0001)     ;
(PID.TID 0000.0001) PTRACERS_long_names = /* Tracer long name */
(PID.TID 0000.0001)               ''
(PID.TID 0000.0001)     ;
(PID.TID 0000.0001) PTRACERS_ioLabel = /* tracer IO Label */
(PID.TID 0000.0001)               '81'
(PID.TID 0000.0001)     ;
(PID.TID 0000.0001) PTRACERS_advScheme = /* Advection Scheme */
(PID.TID 0000.0001)                      33
(PID.TID 0000.0001)     ;
(PID.TID 0000.0001) PTRACERS_ImplVertAdv = /* implicit vert. advection flag */
(PID.TID 0000.0001)                   F
(PID.TID 0000.0001)     ;
(PID.TID 0000.0001) PTRACERS_diffKh = /* Laplacian Diffusivity */
(PID.TID 0000.0001)                 0.000000000000000E+00
(PID.TID 0000.0001)     ;
(PID.TID 0000.0001) PTRACERS_diffK4 = /* Biharmonic Diffusivity */
(PID.TID 0000.0001)                 0.000000000000000E+00
(PID.TID 0000.0001)     ;
(PID.TID 0000.0001) PTRACERS_diffKrNr = /* Vertical Diffusivity */
(PID.TID 0000.0001)    15 @  1.000000000000000E-05              /* K =  1: 15 */
(PID.TID 0000.0001)     ;
(PID.TID 0000.0001) PTRACERS_useGMRedi = /* apply GM-Redi */
(PID.TID 0000.0001)                   T
(PID.TID 0000.0001)     ;
(PID.TID 0000.0001) PTRACERS_useDWNSLP = /* apply DOWN-SLOPE Flow */
(PID.TID 0000.0001)                   F
(PID.TID 0000.0001)     ;
(PID.TID 0000.0001) PTRACERS_useKPP = /* apply KPP scheme */
(PID.TID 0000.0001)                   F
(PID.TID 0000.0001)     ;
(PID.TID 0000.0001) PTRACERS_ref = /* Reference vertical profile */
(PID.TID 0000.0001)    15 @  0.000000000000000E+00              /* K =  1: 15 */
(PID.TID 0000.0001)     ;
(PID.TID 0000.0001) PTRACERS_EvPrRn =/* tracer conc. in Evap. & Rain */
(PID.TID 0000.0001)                 1.234567000000000E+05
(PID.TID 0000.0001)     ;
(PID.TID 0000.0001)  -----------------------------------
(PID.TID 0000.0001)  tracer number :   82
(PID.TID 0000.0001) PTRACERS_names = /* Tracer short name */
(PID.TID 0000.0001)               'Phy61'
(PID.TID 0000.0001)     ;
(PID.TID 0000.0001) PTRACERS_long_names = /* Tracer long name */
(PID.TID 0000.0001)               ''
(PID.TID 0000.0001)     ;
(PID.TID 0000.0001) PTRACERS_ioLabel = /* tracer IO Label */
(PID.TID 0000.0001)               '82'
(PID.TID 0000.0001)     ;
(PID.TID 0000.0001) PTRACERS_advScheme = /* Advection Scheme */
(PID.TID 0000.0001)                      33
(PID.TID 0000.0001)     ;
(PID.TID 0000.0001) PTRACERS_ImplVertAdv = /* implicit vert. advection flag */
(PID.TID 0000.0001)                   F
(PID.TID 0000.0001)     ;
(PID.TID 0000.0001) PTRACERS_diffKh = /* Laplacian Diffusivity */
(PID.TID 0000.0001)                 0.000000000000000E+00
(PID.TID 0000.0001)     ;
(PID.TID 0000.0001) PTRACERS_diffK4 = /* Biharmonic Diffusivity */
(PID.TID 0000.0001)                 0.000000000000000E+00
(PID.TID 0000.0001)     ;
(PID.TID 0000.0001) PTRACERS_diffKrNr = /* Vertical Diffusivity */
(PID.TID 0000.0001)    15 @  1.000000000000000E-05              /* K =  1: 15 */
(PID.TID 0000.0001)     ;
(PID.TID 0000.0001) PTRACERS_useGMRedi = /* apply GM-Redi */
(PID.TID 0000.0001)                   T
(PID.TID 0000.0001)     ;
(PID.TID 0000.0001) PTRACERS_useDWNSLP = /* apply DOWN-SLOPE Flow */
(PID.TID 0000.0001)                   F
(PID.TID 0000.0001)     ;
(PID.TID 0000.0001) PTRACERS_useKPP = /* apply KPP scheme */
(PID.TID 0000.0001)                   F
(PID.TID 0000.0001)     ;
(PID.TID 0000.0001) PTRACERS_ref = /* Reference vertical profile */
(PID.TID 0000.0001)    15 @  0.000000000000000E+00              /* K =  1: 15 */
(PID.TID 0000.0001)     ;
(PID.TID 0000.0001) PTRACERS_EvPrRn =/* tracer conc. in Evap. & Rain */
(PID.TID 0000.0001)                 1.234567000000000E+05
(PID.TID 0000.0001)     ;
(PID.TID 0000.0001)  -----------------------------------
(PID.TID 0000.0001)  tracer number :   83
(PID.TID 0000.0001) PTRACERS_names = /* Tracer short name */
(PID.TID 0000.0001)               'Phy62'
(PID.TID 0000.0001)     ;
(PID.TID 0000.0001) PTRACERS_long_names = /* Tracer long name */
(PID.TID 0000.0001)               ''
(PID.TID 0000.0001)     ;
(PID.TID 0000.0001) PTRACERS_ioLabel = /* tracer IO Label */
(PID.TID 0000.0001)               '83'
(PID.TID 0000.0001)     ;
(PID.TID 0000.0001) PTRACERS_advScheme = /* Advection Scheme */
(PID.TID 0000.0001)                      33
(PID.TID 0000.0001)     ;
(PID.TID 0000.0001) PTRACERS_ImplVertAdv = /* implicit vert. advection flag */
(PID.TID 0000.0001)                   F
(PID.TID 0000.0001)     ;
(PID.TID 0000.0001) PTRACERS_diffKh = /* Laplacian Diffusivity */
(PID.TID 0000.0001)                 0.000000000000000E+00
(PID.TID 0000.0001)     ;
(PID.TID 0000.0001) PTRACERS_diffK4 = /* Biharmonic Diffusivity */
(PID.TID 0000.0001)                 0.000000000000000E+00
(PID.TID 0000.0001)     ;
(PID.TID 0000.0001) PTRACERS_diffKrNr = /* Vertical Diffusivity */
(PID.TID 0000.0001)    15 @  1.000000000000000E-05              /* K =  1: 15 */
(PID.TID 0000.0001)     ;
(PID.TID 0000.0001) PTRACERS_useGMRedi = /* apply GM-Redi */
(PID.TID 0000.0001)                   T
(PID.TID 0000.0001)     ;
(PID.TID 0000.0001) PTRACERS_useDWNSLP = /* apply DOWN-SLOPE Flow */
(PID.TID 0000.0001)                   F
(PID.TID 0000.0001)     ;
(PID.TID 0000.0001) PTRACERS_useKPP = /* apply KPP scheme */
(PID.TID 0000.0001)                   F
(PID.TID 0000.0001)     ;
(PID.TID 0000.0001) PTRACERS_ref = /* Reference vertical profile */
(PID.TID 0000.0001)    15 @  0.000000000000000E+00              /* K =  1: 15 */
(PID.TID 0000.0001)     ;
(PID.TID 0000.0001) PTRACERS_EvPrRn =/* tracer conc. in Evap. & Rain */
(PID.TID 0000.0001)                 1.234567000000000E+05
(PID.TID 0000.0001)     ;
(PID.TID 0000.0001)  -----------------------------------
(PID.TID 0000.0001)  tracer number :   84
(PID.TID 0000.0001) PTRACERS_names = /* Tracer short name */
(PID.TID 0000.0001)               'Phy63'
(PID.TID 0000.0001)     ;
(PID.TID 0000.0001) PTRACERS_long_names = /* Tracer long name */
(PID.TID 0000.0001)               ''
(PID.TID 0000.0001)     ;
(PID.TID 0000.0001) PTRACERS_ioLabel = /* tracer IO Label */
(PID.TID 0000.0001)               '84'
(PID.TID 0000.0001)     ;
(PID.TID 0000.0001) PTRACERS_advScheme = /* Advection Scheme */
(PID.TID 0000.0001)                      33
(PID.TID 0000.0001)     ;
(PID.TID 0000.0001) PTRACERS_ImplVertAdv = /* implicit vert. advection flag */
(PID.TID 0000.0001)                   F
(PID.TID 0000.0001)     ;
(PID.TID 0000.0001) PTRACERS_diffKh = /* Laplacian Diffusivity */
(PID.TID 0000.0001)                 0.000000000000000E+00
(PID.TID 0000.0001)     ;
(PID.TID 0000.0001) PTRACERS_diffK4 = /* Biharmonic Diffusivity */
(PID.TID 0000.0001)                 0.000000000000000E+00
(PID.TID 0000.0001)     ;
(PID.TID 0000.0001) PTRACERS_diffKrNr = /* Vertical Diffusivity */
(PID.TID 0000.0001)    15 @  1.000000000000000E-05              /* K =  1: 15 */
(PID.TID 0000.0001)     ;
(PID.TID 0000.0001) PTRACERS_useGMRedi = /* apply GM-Redi */
(PID.TID 0000.0001)                   T
(PID.TID 0000.0001)     ;
(PID.TID 0000.0001) PTRACERS_useDWNSLP = /* apply DOWN-SLOPE Flow */
(PID.TID 0000.0001)                   F
(PID.TID 0000.0001)     ;
(PID.TID 0000.0001) PTRACERS_useKPP = /* apply KPP scheme */
(PID.TID 0000.0001)                   F
(PID.TID 0000.0001)     ;
(PID.TID 0000.0001) PTRACERS_ref = /* Reference vertical profile */
(PID.TID 0000.0001)    15 @  0.000000000000000E+00              /* K =  1: 15 */
(PID.TID 0000.0001)     ;
(PID.TID 0000.0001) PTRACERS_EvPrRn =/* tracer conc. in Evap. & Rain */
(PID.TID 0000.0001)                 1.234567000000000E+05
(PID.TID 0000.0001)     ;
(PID.TID 0000.0001)  -----------------------------------
(PID.TID 0000.0001)  tracer number :   85
(PID.TID 0000.0001) PTRACERS_names = /* Tracer short name */
(PID.TID 0000.0001)               'Phy64'
(PID.TID 0000.0001)     ;
(PID.TID 0000.0001) PTRACERS_long_names = /* Tracer long name */
(PID.TID 0000.0001)               ''
(PID.TID 0000.0001)     ;
(PID.TID 0000.0001) PTRACERS_ioLabel = /* tracer IO Label */
(PID.TID 0000.0001)               '85'
(PID.TID 0000.0001)     ;
(PID.TID 0000.0001) PTRACERS_advScheme = /* Advection Scheme */
(PID.TID 0000.0001)                      33
(PID.TID 0000.0001)     ;
(PID.TID 0000.0001) PTRACERS_ImplVertAdv = /* implicit vert. advection flag */
(PID.TID 0000.0001)                   F
(PID.TID 0000.0001)     ;
(PID.TID 0000.0001) PTRACERS_diffKh = /* Laplacian Diffusivity */
(PID.TID 0000.0001)                 0.000000000000000E+00
(PID.TID 0000.0001)     ;
(PID.TID 0000.0001) PTRACERS_diffK4 = /* Biharmonic Diffusivity */
(PID.TID 0000.0001)                 0.000000000000000E+00
(PID.TID 0000.0001)     ;
(PID.TID 0000.0001) PTRACERS_diffKrNr = /* Vertical Diffusivity */
(PID.TID 0000.0001)    15 @  1.000000000000000E-05              /* K =  1: 15 */
(PID.TID 0000.0001)     ;
(PID.TID 0000.0001) PTRACERS_useGMRedi = /* apply GM-Redi */
(PID.TID 0000.0001)                   T
(PID.TID 0000.0001)     ;
(PID.TID 0000.0001) PTRACERS_useDWNSLP = /* apply DOWN-SLOPE Flow */
(PID.TID 0000.0001)                   F
(PID.TID 0000.0001)     ;
(PID.TID 0000.0001) PTRACERS_useKPP = /* apply KPP scheme */
(PID.TID 0000.0001)                   F
(PID.TID 0000.0001)     ;
(PID.TID 0000.0001) PTRACERS_ref = /* Reference vertical profile */
(PID.TID 0000.0001)    15 @  0.000000000000000E+00              /* K =  1: 15 */
(PID.TID 0000.0001)     ;
(PID.TID 0000.0001) PTRACERS_EvPrRn =/* tracer conc. in Evap. & Rain */
(PID.TID 0000.0001)                 1.234567000000000E+05
(PID.TID 0000.0001)     ;
(PID.TID 0000.0001)  -----------------------------------
(PID.TID 0000.0001)  tracer number :   86
(PID.TID 0000.0001) PTRACERS_names = /* Tracer short name */
(PID.TID 0000.0001)               'Phy65'
(PID.TID 0000.0001)     ;
(PID.TID 0000.0001) PTRACERS_long_names = /* Tracer long name */
(PID.TID 0000.0001)               ''
(PID.TID 0000.0001)     ;
(PID.TID 0000.0001) PTRACERS_ioLabel = /* tracer IO Label */
(PID.TID 0000.0001)               '86'
(PID.TID 0000.0001)     ;
(PID.TID 0000.0001) PTRACERS_advScheme = /* Advection Scheme */
(PID.TID 0000.0001)                      33
(PID.TID 0000.0001)     ;
(PID.TID 0000.0001) PTRACERS_ImplVertAdv = /* implicit vert. advection flag */
(PID.TID 0000.0001)                   F
(PID.TID 0000.0001)     ;
(PID.TID 0000.0001) PTRACERS_diffKh = /* Laplacian Diffusivity */
(PID.TID 0000.0001)                 0.000000000000000E+00
(PID.TID 0000.0001)     ;
(PID.TID 0000.0001) PTRACERS_diffK4 = /* Biharmonic Diffusivity */
(PID.TID 0000.0001)                 0.000000000000000E+00
(PID.TID 0000.0001)     ;
(PID.TID 0000.0001) PTRACERS_diffKrNr = /* Vertical Diffusivity */
(PID.TID 0000.0001)    15 @  1.000000000000000E-05              /* K =  1: 15 */
(PID.TID 0000.0001)     ;
(PID.TID 0000.0001) PTRACERS_useGMRedi = /* apply GM-Redi */
(PID.TID 0000.0001)                   T
(PID.TID 0000.0001)     ;
(PID.TID 0000.0001) PTRACERS_useDWNSLP = /* apply DOWN-SLOPE Flow */
(PID.TID 0000.0001)                   F
(PID.TID 0000.0001)     ;
(PID.TID 0000.0001) PTRACERS_useKPP = /* apply KPP scheme */
(PID.TID 0000.0001)                   F
(PID.TID 0000.0001)     ;
(PID.TID 0000.0001) PTRACERS_ref = /* Reference vertical profile */
(PID.TID 0000.0001)    15 @  0.000000000000000E+00              /* K =  1: 15 */
(PID.TID 0000.0001)     ;
(PID.TID 0000.0001) PTRACERS_EvPrRn =/* tracer conc. in Evap. & Rain */
(PID.TID 0000.0001)                 1.234567000000000E+05
(PID.TID 0000.0001)     ;
(PID.TID 0000.0001)  -----------------------------------
(PID.TID 0000.0001)  tracer number :   87
(PID.TID 0000.0001) PTRACERS_names = /* Tracer short name */
(PID.TID 0000.0001)               'Phy66'
(PID.TID 0000.0001)     ;
(PID.TID 0000.0001) PTRACERS_long_names = /* Tracer long name */
(PID.TID 0000.0001)               ''
(PID.TID 0000.0001)     ;
(PID.TID 0000.0001) PTRACERS_ioLabel = /* tracer IO Label */
(PID.TID 0000.0001)               '87'
(PID.TID 0000.0001)     ;
(PID.TID 0000.0001) PTRACERS_advScheme = /* Advection Scheme */
(PID.TID 0000.0001)                      33
(PID.TID 0000.0001)     ;
(PID.TID 0000.0001) PTRACERS_ImplVertAdv = /* implicit vert. advection flag */
(PID.TID 0000.0001)                   F
(PID.TID 0000.0001)     ;
(PID.TID 0000.0001) PTRACERS_diffKh = /* Laplacian Diffusivity */
(PID.TID 0000.0001)                 0.000000000000000E+00
(PID.TID 0000.0001)     ;
(PID.TID 0000.0001) PTRACERS_diffK4 = /* Biharmonic Diffusivity */
(PID.TID 0000.0001)                 0.000000000000000E+00
(PID.TID 0000.0001)     ;
(PID.TID 0000.0001) PTRACERS_diffKrNr = /* Vertical Diffusivity */
(PID.TID 0000.0001)    15 @  1.000000000000000E-05              /* K =  1: 15 */
(PID.TID 0000.0001)     ;
(PID.TID 0000.0001) PTRACERS_useGMRedi = /* apply GM-Redi */
(PID.TID 0000.0001)                   T
(PID.TID 0000.0001)     ;
(PID.TID 0000.0001) PTRACERS_useDWNSLP = /* apply DOWN-SLOPE Flow */
(PID.TID 0000.0001)                   F
(PID.TID 0000.0001)     ;
(PID.TID 0000.0001) PTRACERS_useKPP = /* apply KPP scheme */
(PID.TID 0000.0001)                   F
(PID.TID 0000.0001)     ;
(PID.TID 0000.0001) PTRACERS_ref = /* Reference vertical profile */
(PID.TID 0000.0001)    15 @  0.000000000000000E+00              /* K =  1: 15 */
(PID.TID 0000.0001)     ;
(PID.TID 0000.0001) PTRACERS_EvPrRn =/* tracer conc. in Evap. & Rain */
(PID.TID 0000.0001)                 1.234567000000000E+05
(PID.TID 0000.0001)     ;
(PID.TID 0000.0001)  -----------------------------------
(PID.TID 0000.0001)  tracer number :   88
(PID.TID 0000.0001) PTRACERS_names = /* Tracer short name */
(PID.TID 0000.0001)               'Phy67'
(PID.TID 0000.0001)     ;
(PID.TID 0000.0001) PTRACERS_long_names = /* Tracer long name */
(PID.TID 0000.0001)               ''
(PID.TID 0000.0001)     ;
(PID.TID 0000.0001) PTRACERS_ioLabel = /* tracer IO Label */
(PID.TID 0000.0001)               '88'
(PID.TID 0000.0001)     ;
(PID.TID 0000.0001) PTRACERS_advScheme = /* Advection Scheme */
(PID.TID 0000.0001)                      33
(PID.TID 0000.0001)     ;
(PID.TID 0000.0001) PTRACERS_ImplVertAdv = /* implicit vert. advection flag */
(PID.TID 0000.0001)                   F
(PID.TID 0000.0001)     ;
(PID.TID 0000.0001) PTRACERS_diffKh = /* Laplacian Diffusivity */
(PID.TID 0000.0001)                 0.000000000000000E+00
(PID.TID 0000.0001)     ;
(PID.TID 0000.0001) PTRACERS_diffK4 = /* Biharmonic Diffusivity */
(PID.TID 0000.0001)                 0.000000000000000E+00
(PID.TID 0000.0001)     ;
(PID.TID 0000.0001) PTRACERS_diffKrNr = /* Vertical Diffusivity */
(PID.TID 0000.0001)    15 @  1.000000000000000E-05              /* K =  1: 15 */
(PID.TID 0000.0001)     ;
(PID.TID 0000.0001) PTRACERS_useGMRedi = /* apply GM-Redi */
(PID.TID 0000.0001)                   T
(PID.TID 0000.0001)     ;
(PID.TID 0000.0001) PTRACERS_useDWNSLP = /* apply DOWN-SLOPE Flow */
(PID.TID 0000.0001)                   F
(PID.TID 0000.0001)     ;
(PID.TID 0000.0001) PTRACERS_useKPP = /* apply KPP scheme */
(PID.TID 0000.0001)                   F
(PID.TID 0000.0001)     ;
(PID.TID 0000.0001) PTRACERS_ref = /* Reference vertical profile */
(PID.TID 0000.0001)    15 @  0.000000000000000E+00              /* K =  1: 15 */
(PID.TID 0000.0001)     ;
(PID.TID 0000.0001) PTRACERS_EvPrRn =/* tracer conc. in Evap. & Rain */
(PID.TID 0000.0001)                 1.234567000000000E+05
(PID.TID 0000.0001)     ;
(PID.TID 0000.0001)  -----------------------------------
(PID.TID 0000.0001)  tracer number :   89
(PID.TID 0000.0001) PTRACERS_names = /* Tracer short name */
(PID.TID 0000.0001)               'Phy68'
(PID.TID 0000.0001)     ;
(PID.TID 0000.0001) PTRACERS_long_names = /* Tracer long name */
(PID.TID 0000.0001)               ''
(PID.TID 0000.0001)     ;
(PID.TID 0000.0001) PTRACERS_ioLabel = /* tracer IO Label */
(PID.TID 0000.0001)               '89'
(PID.TID 0000.0001)     ;
(PID.TID 0000.0001) PTRACERS_advScheme = /* Advection Scheme */
(PID.TID 0000.0001)                      33
(PID.TID 0000.0001)     ;
(PID.TID 0000.0001) PTRACERS_ImplVertAdv = /* implicit vert. advection flag */
(PID.TID 0000.0001)                   F
(PID.TID 0000.0001)     ;
(PID.TID 0000.0001) PTRACERS_diffKh = /* Laplacian Diffusivity */
(PID.TID 0000.0001)                 0.000000000000000E+00
(PID.TID 0000.0001)     ;
(PID.TID 0000.0001) PTRACERS_diffK4 = /* Biharmonic Diffusivity */
(PID.TID 0000.0001)                 0.000000000000000E+00
(PID.TID 0000.0001)     ;
(PID.TID 0000.0001) PTRACERS_diffKrNr = /* Vertical Diffusivity */
(PID.TID 0000.0001)    15 @  1.000000000000000E-05              /* K =  1: 15 */
(PID.TID 0000.0001)     ;
(PID.TID 0000.0001) PTRACERS_useGMRedi = /* apply GM-Redi */
(PID.TID 0000.0001)                   T
(PID.TID 0000.0001)     ;
(PID.TID 0000.0001) PTRACERS_useDWNSLP = /* apply DOWN-SLOPE Flow */
(PID.TID 0000.0001)                   F
(PID.TID 0000.0001)     ;
(PID.TID 0000.0001) PTRACERS_useKPP = /* apply KPP scheme */
(PID.TID 0000.0001)                   F
(PID.TID 0000.0001)     ;
(PID.TID 0000.0001) PTRACERS_ref = /* Reference vertical profile */
(PID.TID 0000.0001)    15 @  0.000000000000000E+00              /* K =  1: 15 */
(PID.TID 0000.0001)     ;
(PID.TID 0000.0001) PTRACERS_EvPrRn =/* tracer conc. in Evap. & Rain */
(PID.TID 0000.0001)                 1.234567000000000E+05
(PID.TID 0000.0001)     ;
(PID.TID 0000.0001)  -----------------------------------
(PID.TID 0000.0001)  tracer number :   90
(PID.TID 0000.0001) PTRACERS_names = /* Tracer short name */
(PID.TID 0000.0001)               'Phy69'
(PID.TID 0000.0001)     ;
(PID.TID 0000.0001) PTRACERS_long_names = /* Tracer long name */
(PID.TID 0000.0001)               ''
(PID.TID 0000.0001)     ;
(PID.TID 0000.0001) PTRACERS_ioLabel = /* tracer IO Label */
(PID.TID 0000.0001)               '90'
(PID.TID 0000.0001)     ;
(PID.TID 0000.0001) PTRACERS_advScheme = /* Advection Scheme */
(PID.TID 0000.0001)                      33
(PID.TID 0000.0001)     ;
(PID.TID 0000.0001) PTRACERS_ImplVertAdv = /* implicit vert. advection flag */
(PID.TID 0000.0001)                   F
(PID.TID 0000.0001)     ;
(PID.TID 0000.0001) PTRACERS_diffKh = /* Laplacian Diffusivity */
(PID.TID 0000.0001)                 0.000000000000000E+00
(PID.TID 0000.0001)     ;
(PID.TID 0000.0001) PTRACERS_diffK4 = /* Biharmonic Diffusivity */
(PID.TID 0000.0001)                 0.000000000000000E+00
(PID.TID 0000.0001)     ;
(PID.TID 0000.0001) PTRACERS_diffKrNr = /* Vertical Diffusivity */
(PID.TID 0000.0001)    15 @  1.000000000000000E-05              /* K =  1: 15 */
(PID.TID 0000.0001)     ;
(PID.TID 0000.0001) PTRACERS_useGMRedi = /* apply GM-Redi */
(PID.TID 0000.0001)                   T
(PID.TID 0000.0001)     ;
(PID.TID 0000.0001) PTRACERS_useDWNSLP = /* apply DOWN-SLOPE Flow */
(PID.TID 0000.0001)                   F
(PID.TID 0000.0001)     ;
(PID.TID 0000.0001) PTRACERS_useKPP = /* apply KPP scheme */
(PID.TID 0000.0001)                   F
(PID.TID 0000.0001)     ;
(PID.TID 0000.0001) PTRACERS_ref = /* Reference vertical profile */
(PID.TID 0000.0001)    15 @  0.000000000000000E+00              /* K =  1: 15 */
(PID.TID 0000.0001)     ;
(PID.TID 0000.0001) PTRACERS_EvPrRn =/* tracer conc. in Evap. & Rain */
(PID.TID 0000.0001)                 1.234567000000000E+05
(PID.TID 0000.0001)     ;
(PID.TID 0000.0001)  -----------------------------------
(PID.TID 0000.0001)  tracer number :   91
(PID.TID 0000.0001) PTRACERS_names = /* Tracer short name */
(PID.TID 0000.0001)               'Phy70'
(PID.TID 0000.0001)     ;
(PID.TID 0000.0001) PTRACERS_long_names = /* Tracer long name */
(PID.TID 0000.0001)               ''
(PID.TID 0000.0001)     ;
(PID.TID 0000.0001) PTRACERS_ioLabel = /* tracer IO Label */
(PID.TID 0000.0001)               '91'
(PID.TID 0000.0001)     ;
(PID.TID 0000.0001) PTRACERS_advScheme = /* Advection Scheme */
(PID.TID 0000.0001)                      33
(PID.TID 0000.0001)     ;
(PID.TID 0000.0001) PTRACERS_ImplVertAdv = /* implicit vert. advection flag */
(PID.TID 0000.0001)                   F
(PID.TID 0000.0001)     ;
(PID.TID 0000.0001) PTRACERS_diffKh = /* Laplacian Diffusivity */
(PID.TID 0000.0001)                 0.000000000000000E+00
(PID.TID 0000.0001)     ;
(PID.TID 0000.0001) PTRACERS_diffK4 = /* Biharmonic Diffusivity */
(PID.TID 0000.0001)                 0.000000000000000E+00
(PID.TID 0000.0001)     ;
(PID.TID 0000.0001) PTRACERS_diffKrNr = /* Vertical Diffusivity */
(PID.TID 0000.0001)    15 @  1.000000000000000E-05              /* K =  1: 15 */
(PID.TID 0000.0001)     ;
(PID.TID 0000.0001) PTRACERS_useGMRedi = /* apply GM-Redi */
(PID.TID 0000.0001)                   T
(PID.TID 0000.0001)     ;
(PID.TID 0000.0001) PTRACERS_useDWNSLP = /* apply DOWN-SLOPE Flow */
(PID.TID 0000.0001)                   F
(PID.TID 0000.0001)     ;
(PID.TID 0000.0001) PTRACERS_useKPP = /* apply KPP scheme */
(PID.TID 0000.0001)                   F
(PID.TID 0000.0001)     ;
(PID.TID 0000.0001) PTRACERS_ref = /* Reference vertical profile */
(PID.TID 0000.0001)    15 @  0.000000000000000E+00              /* K =  1: 15 */
(PID.TID 0000.0001)     ;
(PID.TID 0000.0001) PTRACERS_EvPrRn =/* tracer conc. in Evap. & Rain */
(PID.TID 0000.0001)                 1.234567000000000E+05
(PID.TID 0000.0001)     ;
(PID.TID 0000.0001)  -----------------------------------
(PID.TID 0000.0001)  tracer number :   92
(PID.TID 0000.0001) PTRACERS_names = /* Tracer short name */
(PID.TID 0000.0001)               'Phy71'
(PID.TID 0000.0001)     ;
(PID.TID 0000.0001) PTRACERS_long_names = /* Tracer long name */
(PID.TID 0000.0001)               ''
(PID.TID 0000.0001)     ;
(PID.TID 0000.0001) PTRACERS_ioLabel = /* tracer IO Label */
(PID.TID 0000.0001)               '92'
(PID.TID 0000.0001)     ;
(PID.TID 0000.0001) PTRACERS_advScheme = /* Advection Scheme */
(PID.TID 0000.0001)                      33
(PID.TID 0000.0001)     ;
(PID.TID 0000.0001) PTRACERS_ImplVertAdv = /* implicit vert. advection flag */
(PID.TID 0000.0001)                   F
(PID.TID 0000.0001)     ;
(PID.TID 0000.0001) PTRACERS_diffKh = /* Laplacian Diffusivity */
(PID.TID 0000.0001)                 0.000000000000000E+00
(PID.TID 0000.0001)     ;
(PID.TID 0000.0001) PTRACERS_diffK4 = /* Biharmonic Diffusivity */
(PID.TID 0000.0001)                 0.000000000000000E+00
(PID.TID 0000.0001)     ;
(PID.TID 0000.0001) PTRACERS_diffKrNr = /* Vertical Diffusivity */
(PID.TID 0000.0001)    15 @  1.000000000000000E-05              /* K =  1: 15 */
(PID.TID 0000.0001)     ;
(PID.TID 0000.0001) PTRACERS_useGMRedi = /* apply GM-Redi */
(PID.TID 0000.0001)                   T
(PID.TID 0000.0001)     ;
(PID.TID 0000.0001) PTRACERS_useDWNSLP = /* apply DOWN-SLOPE Flow */
(PID.TID 0000.0001)                   F
(PID.TID 0000.0001)     ;
(PID.TID 0000.0001) PTRACERS_useKPP = /* apply KPP scheme */
(PID.TID 0000.0001)                   F
(PID.TID 0000.0001)     ;
(PID.TID 0000.0001) PTRACERS_ref = /* Reference vertical profile */
(PID.TID 0000.0001)    15 @  0.000000000000000E+00              /* K =  1: 15 */
(PID.TID 0000.0001)     ;
(PID.TID 0000.0001) PTRACERS_EvPrRn =/* tracer conc. in Evap. & Rain */
(PID.TID 0000.0001)                 1.234567000000000E+05
(PID.TID 0000.0001)     ;
(PID.TID 0000.0001)  -----------------------------------
(PID.TID 0000.0001)  tracer number :   93
(PID.TID 0000.0001) PTRACERS_names = /* Tracer short name */
(PID.TID 0000.0001)               'Phy72'
(PID.TID 0000.0001)     ;
(PID.TID 0000.0001) PTRACERS_long_names = /* Tracer long name */
(PID.TID 0000.0001)               ''
(PID.TID 0000.0001)     ;
(PID.TID 0000.0001) PTRACERS_ioLabel = /* tracer IO Label */
(PID.TID 0000.0001)               '93'
(PID.TID 0000.0001)     ;
(PID.TID 0000.0001) PTRACERS_advScheme = /* Advection Scheme */
(PID.TID 0000.0001)                      33
(PID.TID 0000.0001)     ;
(PID.TID 0000.0001) PTRACERS_ImplVertAdv = /* implicit vert. advection flag */
(PID.TID 0000.0001)                   F
(PID.TID 0000.0001)     ;
(PID.TID 0000.0001) PTRACERS_diffKh = /* Laplacian Diffusivity */
(PID.TID 0000.0001)                 0.000000000000000E+00
(PID.TID 0000.0001)     ;
(PID.TID 0000.0001) PTRACERS_diffK4 = /* Biharmonic Diffusivity */
(PID.TID 0000.0001)                 0.000000000000000E+00
(PID.TID 0000.0001)     ;
(PID.TID 0000.0001) PTRACERS_diffKrNr = /* Vertical Diffusivity */
(PID.TID 0000.0001)    15 @  1.000000000000000E-05              /* K =  1: 15 */
(PID.TID 0000.0001)     ;
(PID.TID 0000.0001) PTRACERS_useGMRedi = /* apply GM-Redi */
(PID.TID 0000.0001)                   T
(PID.TID 0000.0001)     ;
(PID.TID 0000.0001) PTRACERS_useDWNSLP = /* apply DOWN-SLOPE Flow */
(PID.TID 0000.0001)                   F
(PID.TID 0000.0001)     ;
(PID.TID 0000.0001) PTRACERS_useKPP = /* apply KPP scheme */
(PID.TID 0000.0001)                   F
(PID.TID 0000.0001)     ;
(PID.TID 0000.0001) PTRACERS_ref = /* Reference vertical profile */
(PID.TID 0000.0001)    15 @  0.000000000000000E+00              /* K =  1: 15 */
(PID.TID 0000.0001)     ;
(PID.TID 0000.0001) PTRACERS_EvPrRn =/* tracer conc. in Evap. & Rain */
(PID.TID 0000.0001)                 1.234567000000000E+05
(PID.TID 0000.0001)     ;
(PID.TID 0000.0001)  -----------------------------------
(PID.TID 0000.0001)  tracer number :   94
(PID.TID 0000.0001) PTRACERS_names = /* Tracer short name */
(PID.TID 0000.0001)               'Phy73'
(PID.TID 0000.0001)     ;
(PID.TID 0000.0001) PTRACERS_long_names = /* Tracer long name */
(PID.TID 0000.0001)               ''
(PID.TID 0000.0001)     ;
(PID.TID 0000.0001) PTRACERS_ioLabel = /* tracer IO Label */
(PID.TID 0000.0001)               '94'
(PID.TID 0000.0001)     ;
(PID.TID 0000.0001) PTRACERS_advScheme = /* Advection Scheme */
(PID.TID 0000.0001)                      33
(PID.TID 0000.0001)     ;
(PID.TID 0000.0001) PTRACERS_ImplVertAdv = /* implicit vert. advection flag */
(PID.TID 0000.0001)                   F
(PID.TID 0000.0001)     ;
(PID.TID 0000.0001) PTRACERS_diffKh = /* Laplacian Diffusivity */
(PID.TID 0000.0001)                 0.000000000000000E+00
(PID.TID 0000.0001)     ;
(PID.TID 0000.0001) PTRACERS_diffK4 = /* Biharmonic Diffusivity */
(PID.TID 0000.0001)                 0.000000000000000E+00
(PID.TID 0000.0001)     ;
(PID.TID 0000.0001) PTRACERS_diffKrNr = /* Vertical Diffusivity */
(PID.TID 0000.0001)    15 @  1.000000000000000E-05              /* K =  1: 15 */
(PID.TID 0000.0001)     ;
(PID.TID 0000.0001) PTRACERS_useGMRedi = /* apply GM-Redi */
(PID.TID 0000.0001)                   T
(PID.TID 0000.0001)     ;
(PID.TID 0000.0001) PTRACERS_useDWNSLP = /* apply DOWN-SLOPE Flow */
(PID.TID 0000.0001)                   F
(PID.TID 0000.0001)     ;
(PID.TID 0000.0001) PTRACERS_useKPP = /* apply KPP scheme */
(PID.TID 0000.0001)                   F
(PID.TID 0000.0001)     ;
(PID.TID 0000.0001) PTRACERS_ref = /* Reference vertical profile */
(PID.TID 0000.0001)    15 @  0.000000000000000E+00              /* K =  1: 15 */
(PID.TID 0000.0001)     ;
(PID.TID 0000.0001) PTRACERS_EvPrRn =/* tracer conc. in Evap. & Rain */
(PID.TID 0000.0001)                 1.234567000000000E+05
(PID.TID 0000.0001)     ;
(PID.TID 0000.0001)  -----------------------------------
(PID.TID 0000.0001)  tracer number :   95
(PID.TID 0000.0001) PTRACERS_names = /* Tracer short name */
(PID.TID 0000.0001)               'Phy74'
(PID.TID 0000.0001)     ;
(PID.TID 0000.0001) PTRACERS_long_names = /* Tracer long name */
(PID.TID 0000.0001)               ''
(PID.TID 0000.0001)     ;
(PID.TID 0000.0001) PTRACERS_ioLabel = /* tracer IO Label */
(PID.TID 0000.0001)               '95'
(PID.TID 0000.0001)     ;
(PID.TID 0000.0001) PTRACERS_advScheme = /* Advection Scheme */
(PID.TID 0000.0001)                      33
(PID.TID 0000.0001)     ;
(PID.TID 0000.0001) PTRACERS_ImplVertAdv = /* implicit vert. advection flag */
(PID.TID 0000.0001)                   F
(PID.TID 0000.0001)     ;
(PID.TID 0000.0001) PTRACERS_diffKh = /* Laplacian Diffusivity */
(PID.TID 0000.0001)                 0.000000000000000E+00
(PID.TID 0000.0001)     ;
(PID.TID 0000.0001) PTRACERS_diffK4 = /* Biharmonic Diffusivity */
(PID.TID 0000.0001)                 0.000000000000000E+00
(PID.TID 0000.0001)     ;
(PID.TID 0000.0001) PTRACERS_diffKrNr = /* Vertical Diffusivity */
(PID.TID 0000.0001)    15 @  1.000000000000000E-05              /* K =  1: 15 */
(PID.TID 0000.0001)     ;
(PID.TID 0000.0001) PTRACERS_useGMRedi = /* apply GM-Redi */
(PID.TID 0000.0001)                   T
(PID.TID 0000.0001)     ;
(PID.TID 0000.0001) PTRACERS_useDWNSLP = /* apply DOWN-SLOPE Flow */
(PID.TID 0000.0001)                   F
(PID.TID 0000.0001)     ;
(PID.TID 0000.0001) PTRACERS_useKPP = /* apply KPP scheme */
(PID.TID 0000.0001)                   F
(PID.TID 0000.0001)     ;
(PID.TID 0000.0001) PTRACERS_ref = /* Reference vertical profile */
(PID.TID 0000.0001)    15 @  0.000000000000000E+00              /* K =  1: 15 */
(PID.TID 0000.0001)     ;
(PID.TID 0000.0001) PTRACERS_EvPrRn =/* tracer conc. in Evap. & Rain */
(PID.TID 0000.0001)                 1.234567000000000E+05
(PID.TID 0000.0001)     ;
(PID.TID 0000.0001)  -----------------------------------
(PID.TID 0000.0001)  tracer number :   96
(PID.TID 0000.0001) PTRACERS_names = /* Tracer short name */
(PID.TID 0000.0001)               'Phy75'
(PID.TID 0000.0001)     ;
(PID.TID 0000.0001) PTRACERS_long_names = /* Tracer long name */
(PID.TID 0000.0001)               ''
(PID.TID 0000.0001)     ;
(PID.TID 0000.0001) PTRACERS_ioLabel = /* tracer IO Label */
(PID.TID 0000.0001)               '96'
(PID.TID 0000.0001)     ;
(PID.TID 0000.0001) PTRACERS_advScheme = /* Advection Scheme */
(PID.TID 0000.0001)                      33
(PID.TID 0000.0001)     ;
(PID.TID 0000.0001) PTRACERS_ImplVertAdv = /* implicit vert. advection flag */
(PID.TID 0000.0001)                   F
(PID.TID 0000.0001)     ;
(PID.TID 0000.0001) PTRACERS_diffKh = /* Laplacian Diffusivity */
(PID.TID 0000.0001)                 0.000000000000000E+00
(PID.TID 0000.0001)     ;
(PID.TID 0000.0001) PTRACERS_diffK4 = /* Biharmonic Diffusivity */
(PID.TID 0000.0001)                 0.000000000000000E+00
(PID.TID 0000.0001)     ;
(PID.TID 0000.0001) PTRACERS_diffKrNr = /* Vertical Diffusivity */
(PID.TID 0000.0001)    15 @  1.000000000000000E-05              /* K =  1: 15 */
(PID.TID 0000.0001)     ;
(PID.TID 0000.0001) PTRACERS_useGMRedi = /* apply GM-Redi */
(PID.TID 0000.0001)                   T
(PID.TID 0000.0001)     ;
(PID.TID 0000.0001) PTRACERS_useDWNSLP = /* apply DOWN-SLOPE Flow */
(PID.TID 0000.0001)                   F
(PID.TID 0000.0001)     ;
(PID.TID 0000.0001) PTRACERS_useKPP = /* apply KPP scheme */
(PID.TID 0000.0001)                   F
(PID.TID 0000.0001)     ;
(PID.TID 0000.0001) PTRACERS_ref = /* Reference vertical profile */
(PID.TID 0000.0001)    15 @  0.000000000000000E+00              /* K =  1: 15 */
(PID.TID 0000.0001)     ;
(PID.TID 0000.0001) PTRACERS_EvPrRn =/* tracer conc. in Evap. & Rain */
(PID.TID 0000.0001)                 1.234567000000000E+05
(PID.TID 0000.0001)     ;
(PID.TID 0000.0001)  -----------------------------------
(PID.TID 0000.0001)  tracer number :   97
(PID.TID 0000.0001) PTRACERS_names = /* Tracer short name */
(PID.TID 0000.0001)               'Phy76'
(PID.TID 0000.0001)     ;
(PID.TID 0000.0001) PTRACERS_long_names = /* Tracer long name */
(PID.TID 0000.0001)               ''
(PID.TID 0000.0001)     ;
(PID.TID 0000.0001) PTRACERS_ioLabel = /* tracer IO Label */
(PID.TID 0000.0001)               '97'
(PID.TID 0000.0001)     ;
(PID.TID 0000.0001) PTRACERS_advScheme = /* Advection Scheme */
(PID.TID 0000.0001)                      33
(PID.TID 0000.0001)     ;
(PID.TID 0000.0001) PTRACERS_ImplVertAdv = /* implicit vert. advection flag */
(PID.TID 0000.0001)                   F
(PID.TID 0000.0001)     ;
(PID.TID 0000.0001) PTRACERS_diffKh = /* Laplacian Diffusivity */
(PID.TID 0000.0001)                 0.000000000000000E+00
(PID.TID 0000.0001)     ;
(PID.TID 0000.0001) PTRACERS_diffK4 = /* Biharmonic Diffusivity */
(PID.TID 0000.0001)                 0.000000000000000E+00
(PID.TID 0000.0001)     ;
(PID.TID 0000.0001) PTRACERS_diffKrNr = /* Vertical Diffusivity */
(PID.TID 0000.0001)    15 @  1.000000000000000E-05              /* K =  1: 15 */
(PID.TID 0000.0001)     ;
(PID.TID 0000.0001) PTRACERS_useGMRedi = /* apply GM-Redi */
(PID.TID 0000.0001)                   T
(PID.TID 0000.0001)     ;
(PID.TID 0000.0001) PTRACERS_useDWNSLP = /* apply DOWN-SLOPE Flow */
(PID.TID 0000.0001)                   F
(PID.TID 0000.0001)     ;
(PID.TID 0000.0001) PTRACERS_useKPP = /* apply KPP scheme */
(PID.TID 0000.0001)                   F
(PID.TID 0000.0001)     ;
(PID.TID 0000.0001) PTRACERS_ref = /* Reference vertical profile */
(PID.TID 0000.0001)    15 @  0.000000000000000E+00              /* K =  1: 15 */
(PID.TID 0000.0001)     ;
(PID.TID 0000.0001) PTRACERS_EvPrRn =/* tracer conc. in Evap. & Rain */
(PID.TID 0000.0001)                 1.234567000000000E+05
(PID.TID 0000.0001)     ;
(PID.TID 0000.0001)  -----------------------------------
(PID.TID 0000.0001)  tracer number :   98
(PID.TID 0000.0001) PTRACERS_names = /* Tracer short name */
(PID.TID 0000.0001)               'Phy77'
(PID.TID 0000.0001)     ;
(PID.TID 0000.0001) PTRACERS_long_names = /* Tracer long name */
(PID.TID 0000.0001)               ''
(PID.TID 0000.0001)     ;
(PID.TID 0000.0001) PTRACERS_ioLabel = /* tracer IO Label */
(PID.TID 0000.0001)               '98'
(PID.TID 0000.0001)     ;
(PID.TID 0000.0001) PTRACERS_advScheme = /* Advection Scheme */
(PID.TID 0000.0001)                      33
(PID.TID 0000.0001)     ;
(PID.TID 0000.0001) PTRACERS_ImplVertAdv = /* implicit vert. advection flag */
(PID.TID 0000.0001)                   F
(PID.TID 0000.0001)     ;
(PID.TID 0000.0001) PTRACERS_diffKh = /* Laplacian Diffusivity */
(PID.TID 0000.0001)                 0.000000000000000E+00
(PID.TID 0000.0001)     ;
(PID.TID 0000.0001) PTRACERS_diffK4 = /* Biharmonic Diffusivity */
(PID.TID 0000.0001)                 0.000000000000000E+00
(PID.TID 0000.0001)     ;
(PID.TID 0000.0001) PTRACERS_diffKrNr = /* Vertical Diffusivity */
(PID.TID 0000.0001)    15 @  1.000000000000000E-05              /* K =  1: 15 */
(PID.TID 0000.0001)     ;
(PID.TID 0000.0001) PTRACERS_useGMRedi = /* apply GM-Redi */
(PID.TID 0000.0001)                   T
(PID.TID 0000.0001)     ;
(PID.TID 0000.0001) PTRACERS_useDWNSLP = /* apply DOWN-SLOPE Flow */
(PID.TID 0000.0001)                   F
(PID.TID 0000.0001)     ;
(PID.TID 0000.0001) PTRACERS_useKPP = /* apply KPP scheme */
(PID.TID 0000.0001)                   F
(PID.TID 0000.0001)     ;
(PID.TID 0000.0001) PTRACERS_ref = /* Reference vertical profile */
(PID.TID 0000.0001)    15 @  0.000000000000000E+00              /* K =  1: 15 */
(PID.TID 0000.0001)     ;
(PID.TID 0000.0001) PTRACERS_EvPrRn =/* tracer conc. in Evap. & Rain */
(PID.TID 0000.0001)                 1.234567000000000E+05
(PID.TID 0000.0001)     ;
(PID.TID 0000.0001)  -----------------------------------
(PID.TID 0000.0001)  tracer number :   99
(PID.TID 0000.0001) PTRACERS_names = /* Tracer short name */
(PID.TID 0000.0001)               'Phy78'
(PID.TID 0000.0001)     ;
(PID.TID 0000.0001) PTRACERS_long_names = /* Tracer long name */
(PID.TID 0000.0001)               ''
(PID.TID 0000.0001)     ;
(PID.TID 0000.0001) PTRACERS_ioLabel = /* tracer IO Label */
(PID.TID 0000.0001)               '99'
(PID.TID 0000.0001)     ;
(PID.TID 0000.0001) PTRACERS_advScheme = /* Advection Scheme */
(PID.TID 0000.0001)                      33
(PID.TID 0000.0001)     ;
(PID.TID 0000.0001) PTRACERS_ImplVertAdv = /* implicit vert. advection flag */
(PID.TID 0000.0001)                   F
(PID.TID 0000.0001)     ;
(PID.TID 0000.0001) PTRACERS_diffKh = /* Laplacian Diffusivity */
(PID.TID 0000.0001)                 0.000000000000000E+00
(PID.TID 0000.0001)     ;
(PID.TID 0000.0001) PTRACERS_diffK4 = /* Biharmonic Diffusivity */
(PID.TID 0000.0001)                 0.000000000000000E+00
(PID.TID 0000.0001)     ;
(PID.TID 0000.0001) PTRACERS_diffKrNr = /* Vertical Diffusivity */
(PID.TID 0000.0001)    15 @  1.000000000000000E-05              /* K =  1: 15 */
(PID.TID 0000.0001)     ;
(PID.TID 0000.0001) PTRACERS_useGMRedi = /* apply GM-Redi */
(PID.TID 0000.0001)                   T
(PID.TID 0000.0001)     ;
(PID.TID 0000.0001) PTRACERS_useDWNSLP = /* apply DOWN-SLOPE Flow */
(PID.TID 0000.0001)                   F
(PID.TID 0000.0001)     ;
(PID.TID 0000.0001) PTRACERS_useKPP = /* apply KPP scheme */
(PID.TID 0000.0001)                   F
(PID.TID 0000.0001)     ;
(PID.TID 0000.0001) PTRACERS_ref = /* Reference vertical profile */
(PID.TID 0000.0001)    15 @  0.000000000000000E+00              /* K =  1: 15 */
(PID.TID 0000.0001)     ;
(PID.TID 0000.0001) PTRACERS_EvPrRn =/* tracer conc. in Evap. & Rain */
(PID.TID 0000.0001)                 1.234567000000000E+05
(PID.TID 0000.0001)     ;
(PID.TID 0000.0001)  -----------------------------------
(PID.TID 0000.0001)  GCHEM_READPARMS: opening data.gchem
(PID.TID 0000.0001)  OPEN_COPY_DATA_FILE: opening file data.gchem
(PID.TID 0000.0001) // =======================================================
(PID.TID 0000.0001) // Parameter file "data.gchem"
(PID.TID 0000.0001) // =======================================================
(PID.TID 0000.0001) > &GCHEM_PARM01
(PID.TID 0000.0001) > useDARWIN=.TRUE.,
(PID.TID 0000.0001) > nsubtime=4,
(PID.TID 0000.0001) > /
(PID.TID 0000.0001) 
(PID.TID 0000.0001)  GCHEM_READPARMS: finished reading data.gchem
(PID.TID 0000.0001)  DARWIN_READPARMS: opening data.darwin
(PID.TID 0000.0001)  OPEN_COPY_DATA_FILE: opening file data.darwin
(PID.TID 0000.0001) // =======================================================
(PID.TID 0000.0001) // Parameter file "data.darwin"
(PID.TID 0000.0001) // =======================================================
(PID.TID 0000.0001) > &DARWIN_FORCING
(PID.TID 0000.0001) > darwin_iceFile='../input/input_ocmip/fice.bin',
(PID.TID 0000.0001) > darwin_ironFile='../input/input_ocmip/mah_flux_smooth.bin',
(PID.TID 0000.0001) > darwin_PARFile='../input/input_ocmip/par_ocmip.bin_mth-2d.bin',
(PID.TID 0000.0001) > darwin_seed=801,
(PID.TID 0000.0001) > /
(PID.TID 0000.0001) 
(PID.TID 0000.0001)  DARWIN_READPARMS: finished reading data.darwin
(PID.TID 0000.0001) // ===================================
(PID.TID 0000.0001) // darwin parameters
(PID.TID 0000.0001) // ===================================
(PID.TID 0000.0001) darwin_seed = /* seed for random number generator */
(PID.TID 0000.0001)                     801
(PID.TID 0000.0001)     ;
(PID.TID 0000.0001)  -----------------------------------
(PID.TID 0000.0001)  ===================================
(PID.TID 0000.0001) SET_PARMS: done
(PID.TID 0000.0001) Enter INI_VERTICAL_GRID: setInterFDr=    T ; setCenterDr=    F
(PID.TID 0000.0001) %MON XC_max                       =   3.5859375000000E+02
(PID.TID 0000.0001) %MON XC_min                       =   1.4062500000000E+00
(PID.TID 0000.0001) %MON XC_mean                      =   1.8000000000000E+02
(PID.TID 0000.0001) %MON XC_sd                        =   1.0391987692599E+02
(PID.TID 0000.0001) %MON XG_max                       =   3.5718750000000E+02
(PID.TID 0000.0001) %MON XG_min                       =   0.0000000000000E+00
(PID.TID 0000.0001) %MON XG_mean                      =   1.7859375000000E+02
(PID.TID 0000.0001) %MON XG_sd                        =   1.0391987692599E+02
(PID.TID 0000.0001) %MON DXC_max                      =   3.1259246843155E+05
(PID.TID 0000.0001) %MON DXC_min                      =   7.6737143816223E+03
(PID.TID 0000.0001) %MON DXC_mean                     =   1.9908248704234E+05
(PID.TID 0000.0001) %MON DXC_sd                       =   9.6190602240067E+04
(PID.TID 0000.0001) %MON DXF_max                      =   3.1259246843155E+05
(PID.TID 0000.0001) %MON DXF_min                      =   7.6737143816223E+03
(PID.TID 0000.0001) %MON DXF_mean                     =   1.9908248704234E+05
(PID.TID 0000.0001) %MON DXF_sd                       =   9.6190602240067E+04
(PID.TID 0000.0001) %MON DXG_max                      =   3.1268664380261E+05
(PID.TID 0000.0001) %MON DXG_min                      =   0.0000000000000E+00
(PID.TID 0000.0001) %MON DXG_mean                     =   1.9902252711933E+05
(PID.TID 0000.0001) %MON DXG_sd                       =   9.6314600686012E+04
(PID.TID 0000.0001) %MON DXV_max                      =   3.1268664380261E+05
(PID.TID 0000.0001) %MON DXV_min                      =   0.0000000000000E+00
(PID.TID 0000.0001) %MON DXV_mean                     =   1.9902252711933E+05
(PID.TID 0000.0001) %MON DXV_sd                       =   9.6314600686012E+04
(PID.TID 0000.0001) %MON YC_max                       =   8.8593750000000E+01
(PID.TID 0000.0001) %MON YC_min                       =  -8.8593750000000E+01
(PID.TID 0000.0001) %MON YC_mean                      =   0.0000000000000E+00
(PID.TID 0000.0001) %MON YC_sd                        =   5.1955180880375E+01
(PID.TID 0000.0001) %MON YG_max                       =   8.7187500000000E+01
(PID.TID 0000.0001) %MON YG_min                       =  -9.0000000000000E+01
(PID.TID 0000.0001) %MON YG_mean                      =  -1.4062500000000E+00
(PID.TID 0000.0001) %MON YG_sd                        =   5.1955180880375E+01
(PID.TID 0000.0001) %MON DYC_max                      =   3.1268664380261E+05
(PID.TID 0000.0001) %MON DYC_min                      =   3.1268664380261E+05
(PID.TID 0000.0001) %MON DYC_mean                     =   3.1268664380262E+05
(PID.TID 0000.0001) %MON DYC_sd                       =   1.4668330550194E-08
(PID.TID 0000.0001) %MON DYF_max                      =   3.1268664380261E+05
(PID.TID 0000.0001) %MON DYF_min                      =   3.1268664380261E+05
(PID.TID 0000.0001) %MON DYF_mean                     =   3.1268664380262E+05
(PID.TID 0000.0001) %MON DYF_sd                       =   1.4668330550194E-08
(PID.TID 0000.0001) %MON DYG_max                      =   3.1268664380261E+05
(PID.TID 0000.0001) %MON DYG_min                      =   3.1268664380261E+05
(PID.TID 0000.0001) %MON DYG_mean                     =   3.1268664380262E+05
(PID.TID 0000.0001) %MON DYG_sd                       =   1.4668330550194E-08
(PID.TID 0000.0001) %MON DYU_max                      =   3.1268664380261E+05
(PID.TID 0000.0001) %MON DYU_min                      =   3.1268664380261E+05
(PID.TID 0000.0001) %MON DYU_mean                     =   3.1268664380262E+05
(PID.TID 0000.0001) %MON DYU_sd                       =   1.4668330550194E-08
(PID.TID 0000.0001) %MON RA_max                       =   9.7733676797555E+10
(PID.TID 0000.0001) %MON RA_min                       =   2.3992270990190E+09
(PID.TID 0000.0001) %MON RA_mean                      =   6.2244185031957E+10
(PID.TID 0000.0001) %MON RA_sd                        =   3.0074496923945E+10
(PID.TID 0000.0001) %MON RAW_max                      =   9.7733676797555E+10
(PID.TID 0000.0001) %MON RAW_min                      =   2.3992270990190E+09
(PID.TID 0000.0001) %MON RAW_mean                     =   6.2244185031957E+10
(PID.TID 0000.0001) %MON RAW_sd                       =   3.0074496923945E+10
(PID.TID 0000.0001) %MON RAS_max                      =   9.7763121221868E+10
(PID.TID 0000.0001) %MON RAS_min                      =   0.0000000000000E+00
(PID.TID 0000.0001) %MON RAS_mean                     =   6.2225438247157E+10
(PID.TID 0000.0001) %MON RAS_sd                       =   3.0113265689233E+10
(PID.TID 0000.0001) %MON RAZ_max                      =   9.7763121221868E+10
(PID.TID 0000.0001) %MON RAZ_min                      =   0.0000000000000E+00
(PID.TID 0000.0001) %MON RAZ_mean                     =   6.2225438247157E+10
(PID.TID 0000.0001) %MON RAZ_sd                       =   3.0113265689233E+10
(PID.TID 0000.0001) %MON AngleCS_max                  =   1.0000000000000E+00
(PID.TID 0000.0001) %MON AngleCS_min                  =   1.0000000000000E+00
(PID.TID 0000.0001) %MON AngleCS_mean                 =   1.0000000000000E+00
(PID.TID 0000.0001) %MON AngleCS_sd                   =   0.0000000000000E+00
(PID.TID 0000.0001) %MON AngleSN_max                  =   0.0000000000000E+00
(PID.TID 0000.0001) %MON AngleSN_min                  =   0.0000000000000E+00
(PID.TID 0000.0001) %MON AngleSN_mean                 =   0.0000000000000E+00
(PID.TID 0000.0001) %MON AngleSN_sd                   =   0.0000000000000E+00
(PID.TID 0000.0001)  MDS_READ_FIELD: opening global file: ../input/input_ocmip/depth_g77.bin
(PID.TID 0000.0001) // =======================================================
(PID.TID 0000.0001) // Field Model R_low (ini_masks_etc)
(PID.TID 0000.0001) // CMIN =         -5.200000000000000E+03
(PID.TID 0000.0001) // CMAX =         -5.000000000000000E+01
(PID.TID 0000.0001) // CINT =          1.907407407407407E+02
(PID.TID 0000.0001) // SYMBOLS (CMIN->CMAX): -abcdefghijklmnopqrstuvwxyz+
(PID.TID 0000.0001) //                  0.0: .
(PID.TID 0000.0001) // RANGE I (Lo:Hi:Step):(    -3:   132:     1)
(PID.TID 0000.0001) // RANGE J (Lo:Hi:Step):(    68:    -3:    -1)
(PID.TID 0000.0001) // RANGE K (Lo:Hi:Step):(   1:   1:   1)
(PID.TID 0000.0001) // =======================================================
(PID.TID 0000.0001) K =   1
(PID.TID 0000.0001) //                I=6       I=16      I=26      I=36      I=46      I=56      I=66      I=68      I=78      I=88      I=98      I=108     I=118     I=128
(PID.TID 0000.0001) // |--J--|321012345|789012345|789012345|789012345|789012345|789012345|789012345|781234567|901234567|901234567|901234567|901234567|901234567|901234567|9012
(PID.TID 0000.0001) //     68 ................................................................................................................................................
(PID.TID 0000.0001) //     67 ................................................................................................................................................
(PID.TID 0000.0001) //     66 ................................................................................................................................................
(PID.TID 0000.0001) //     65 ................................................................................................................................................
(PID.TID 0000.0001) //     64 ................................................................................................................................................
(PID.TID 0000.0001) //     63 ................................................................................................................................................
(PID.TID 0000.0001) //     62 ................................................................................................................................................
(PID.TID 0000.0001) //     61 +zvoovxyyy...+zzzzz+++++...............................................................................................................++zvoovxy
(PID.TID 0000.0001) //     60 +yvmmorw.....+++++zzzzz+.........................................................................................+....................zz+yvmmorw
(PID.TID 0000.0001) //     59 ojjjmmooty++zzzzzzzzzz+.........................................................................................+xwwwyz..............+ztojjjmmoo
(PID.TID 0000.0001) //     58 troommmorxzz+++zzzzz++.............................................................................................wttyz............+yvttroommmo
(PID.TID 0000.0001) //     57 vrmmmmmrv............................................................................................................xxz............xwvvvrmmmmmr
(PID.TID 0000.0001) //     56 vrjjrvyz..............................................................................................................zy........yyzxx..zvrjjrvyz
(PID.TID 0000.0001) //     55 ywrrvy..............................................................++......++.......................................+yvv.....vrrtxyyzyyywrrvy..
(PID.TID 0000.0001) //     54 xzz++............................................................vtt++++.vtt++++......................................yommv..vmmrvtoortwxzz++...
(PID.TID 0000.0001) //     53 y...++.................................................++++...wvtjggmrz+tjggmrz+++....xojmt...........................+tmjjmmmmrtoootwyxy...++..
(PID.TID 0000.0001) //     52 ....++................................................+zyyy...rrojjrmjjtojjrmjjt+.yvrjjjjjjr............................wtjjjjmrommmtvtt....++..
(PID.TID 0000.0001) //     51 .......................................................zvvx..ggjjmotvoomjmotvoomjdddddgggjjjrz..........................+yrjjjjjmmjjmmry........
(PID.TID 0000.0001) //     50 y+.....................................................+vvxyd--ggdd-----gdd-------ddddddgggjmox..........................+yrogggjmmggggty+......
(PID.TID 0000.0001) //     49 gj+....................................................+vvmd----g-------g--------------ddddgjomx..........................+wrgggjmojggddgj+.....
(PID.TID 0000.0001) //     48 vxx.....................................................vd------g-------g--------------ddgggjmmv.....................+xrrxwgdggjjoomjggjvxx.....
(PID.TID 0000.0001) //     47 v......................................................m------d-gd------gd-------------ddddggjjt...................ywgd--dggdddgrrojgddgv.......
(PID.TID 0000.0001) //     46 w.....................................................xd-----gd-jdgd----jdgd-----------dd---dddm..................rgddg-----dggmttvogdjjw.......
(PID.TID 0000.0001) //     45 m.....................................................m-----gd--gjjjjj--gjjjjj-------------ddddgt................tgddddg-ggggjoooojddgomm.......
(PID.TID 0000.0001) //     44 .................................................+.wttg----gj----jgggg---jgggg---dd-------ddddggjw..............zj--ggdd--dgjomjjoj-djmm........
(PID.TID 0000.0001) //     43 ................................................+zxmjrg----------dddggdd-dddggdd--d----ddddggddggmx............+wg--dd----djmmgddjd-djow........
(PID.TID 0000.0001) //     42 ...............................................+zyomjjrmd-----------djjj----djjjjdgd----dddddddgggj............wwd-------ddjmgd---d-gmx.........
(PID.TID 0000.0001) //     41 .........................tt.....................mgjjggrgddjddd----d---gg--d---ggtjjggd----ddddggggjm++.......vwwwv-------dgmjd------go..........
(PID.TID 0000.0001) //     40 .........................roo.................yytdd--gdmogggjjgd--jomd-gj-jomd-gjgdgovd-------ddggggjmm.......xxx.xvj-----dgmgd--ddddgt..........
(PID.TID 0000.0001) //     39 ........................xjjjr.....vrr.......vovtd---ddgogjgddggggmjjjmmmgmjjjmmmg--gmd--------dgggjjmmt......oortw.tttg-ddgmgd--ddgjjr..........
(PID.TID 0000.0001) //     38 .......................rmjggjt...rmmo+.....xrov.m--dddgogddddgggddgddddjddgddddjg----------dd-ddgggjmjmmov.....ytmmggttdddjjjdd---dtjr..........
(PID.TID 0000.0001) //     37 ....................zvvtjggggt..+jjjrx+....vmmy.t--ddgmmg--ddjmmg-d-d--dg-d-d--ddd-------dddddddggggjjmmjjjo...toovttwxjdddjjgd----ddo..........
(PID.TID 0000.0001) //     36 ......................tjmgdddrw.+jjjrxz....vty...--gmommmgdddmgor------gr------ggmgg--d---dddddddgggjmmjjggjm+.ww......rjdddgjgd----gm..........
(PID.TID 0000.0001) //     35 ......................dgjmgggmrv+jgjoxz....ww....--mjjorrommjgdjmj---d--mj---d--dgmgdddd-dddddddggggggjjjjjjjtx.........zyggddgjjgggmdjx........
(PID.TID 0000.0001) //     34 rrrrrtz..............rdddjmjgmrmgggjjw........zyxojjggmgggjmjjdgdjd--d--djd--d---djodddddddddddddgggggjjjjjmtrmr..........ymgggjmjggjddgrrrrrtz.
(PID.TID 0000.0001) //     33 dddddgr.............tddggggmjjogdddjjj.........zxxojgjmgggjoojdddmg--dd-dmg--dd--ddmjdgdddddgddddgggggjjjmmtrmmy...........+jgggjmjjdddddddddgr.
(PID.TID 0000.0001) //     32 gdddggo............rgddgddgjjjjddddgddm.........xx..+ttttrrrojggggo--dd-ggo--dd----dgddddddddddddddgggjjjjjtror..............oogdddgggjjgdddggo.
(PID.TID 0000.0001) //     31 jgddgdgy..........vgddgwrjgjmrg--ddgdddr........xxz.....y.xvtomjjdd---ddjdd---dd-jdddddddddddddddddggjjjjgggjjj................tg----dgmjgddgdgy
(PID.TID 0000.0001) //     30 jgdgd-dm..........vggjjovmgjmwd---dgddddmy...+xxxxy++....oo.vtjjgddg--ddgddg--dddjgddddddgjdddddddggjjjgggggggg................zd---dgjmjgdgd-dm
(PID.TID 0000.0001) //     29 jggd--dgy.........wjmmmjmyomjm---ddgdddddgjmooxxxx++++.+..vtvxrrgddjjjjggddjjjjggjmg-dgddgrgddgggggjmmjggggggddr...............yd---dgjmjggd--dg
(PID.TID 0000.0001) //     28 jjdd---gy.........wtr.gggymmjg--ddgj-djdggggggmxx+.....+ommromrvorrrtmmgorrrtmmgdgm--dgddgggggggggjjmjgggggggddd..............+gg---dgmmjjdd---g
(PID.TID 0000.0001) //     27 jgdd---g..........ww..gggymmjgdd-djj-dd---dgjjw+........vtmmmjjxmmotvrrgmmotvrrgddd-ggmtvroggggggjjmjjggjjggddddo.............ygd---dgjmjgdd---g
(PID.TID 0000.0001) //     26 jgdd---o..........rx..ddoromjgdd--gj-d-----jtw+..........ytrrotwrmrzvrjgrmrzvrjgdddgggojmromjgggjjjmjggggggddddjjg............yjd---dgjmjgdd---o
(PID.TID 0000.0001) //     25 jdd--dmo.........roz.rdomgjmmgddddgjd---dggox.............ztxxzyrmmmtv--rmmmtv----dgggggggmmjggggjjjjgggggggggmjddj...........rjgd--ddgmjdd--dmo
(PID.TID 0000.0001) //     24 gd---gogt.......zmjx.jdgdgggmjggddgjd--ddgmr..............zrrtmwoggjto--oggjto----ddddgggggjmjjjjjmjjgggjjjjjmmgdjj..........vjgd----djmgd---gog
(PID.TID 0000.0001) //     23 jgdddojdo.......wjgowj---dgjjmjggggjdddmdddr..............yjrtmrmjgjtmd-mjgjtmd------ddjmjgggggjjjmmmmmmmjjjjjjjggo........+omgddddddgjmjgdddojd
(PID.TID 0000.0001) //     22 jgddmgddj+.....yrddoojddgjggggmjgggooommgddd+.............yjrtororjmt-d-orjmt-d-------dddggdgggggjjmmmjjjjjjjgggggw........rjjmoojdddgjmjgddmgdd
(PID.TID 0000.0001) //     21 ggjjjdddgv.....mrddrogdjjgdddgjmjjmrgjmmgddgt....++.......rgrvovtrmom---trmom------------ddddgggggjmmjjjggjjjggggg+.......wjgggmmjdgggjjggjjjddd
(PID.TID 0000.0001) //     20 ggjgd---dgy.xjgjjddjjjjjgddddggjjjjgggdddddgjttjjjjt......gggrvtt.xrj--dt.xrj--d----------ddggjjggjjjjjjjjjjgggggj.......zjdddddgggggjjjggjgd---
(PID.TID 0000.0001) //     19 jjgd----gggjgjggddgjjjjgd-dddggjjjgggggddddddd------gv...jdddjtww..xjd-dw..xjd-dj--d-------dddddgggjjjgggjjjgggggj......zj-----ddggggjjjjjgd----
(PID.TID 0000.0001) //     18 jjgggdddjg--gjggdgjjjjjgd--dggjjjjjjjjggggddddd------dj..jddddjvy..tjjggy..tjjggdg-----------ddddggjjjggggjjjjgggv......r-------dddgjjjjjjgggddd
(PID.TID 0000.0001) //     17 gggjgdgdddddd--djjjjjjjgddddggjjjjjjjjjjggggdddddddddddvyjddddgv..wwwwrj..wwwwrjd-d-----------ddggjjjjjggggggjjjjz...++t--------ddddgjjjgggjgdgd
(PID.TID 0000.0001) //     16 jjgggdjgdddd--djjjjjjjjgddgjjjjjjjjjjjjjjjgggggdddddggdjrjddddj..vtrjgd-.vtrjgd----dddd-----ddddggjjjjjggdddggjjj....++r----------ddgjjjjjgggdjg
(PID.TID 0000.0001) //     15 jjjjjjjjgdddddgjggggggggdgjx.yjjjggggjjjjjjjjjgggggjjjgjjjdddgjjjjjjjd--jjjjjd------ddddddddddggjjjjjjggddddddggj....++xtjddggdddgjdgggjjjjjjjjj
(PID.TID 0000.0001) //     14 jjjjjjjjjjjjjgdddgjjjgggddgjjjjjjgdgggggggjjgggggggjjjjjggddjjjjjjjd----jjjd------dddddggjggggggjjjjjgggdddddddgjj..+jjjjjjjjjjjjgjjddggjjjjjjjj
(PID.TID 0000.0001) //     13 jjjjjjjgddgggg---gjggggddddjjjjjjgdddgggggggdddddddggjjjjgggjgjjjg------jg------ddddgjjjjjjjjjjjjjjjgggdgd----ddgjjjjjjjjjjjjjjjjggggddgjjjjjjjg
(PID.TID 0000.0001) //     12 gjggdd----dd--------------djjjjjjjdddddgdddddddddddddgjjjjjjjgd-----dddd----dddddddgjjjjjjjjjgggggdddddddddd---dddgjjjjgggjjjjjjjjvggggggjggdd--
(PID.TID 0000.0001) //     11 ------------------------dddddjjjrtjddddddddddddddddddgggjjjjjjjgddddddggddddddgggggjjjjjjgggdggddd--------------ddgjjjjjrrrvttrrjjjgggdd--------
(PID.TID 0000.0001) //     10 ----ggd--------d--ddgdddddgggggjjjjjjjjjjjjjjjjgggjjjjggggjjjjjjjjjjjjjjjjjjjjjjjjjjjjjgggddddd-----------dddddddggjrv..zvjjjggdddddd-------ggd-
(PID.TID 0000.0001) //      9 --ddjjggjjdddddjjggjtw..wrrrrrrrvvvw+........zxx++...zxvttrrjrjjjjjjjjjjjjjjjjjjjjgggggggggddddddddddddddddgdddggjt+...yxrjgdddddddgd-----ddjjgg
(PID.TID 0000.0001) //      8 jjjjjjjtvrjjjjv..............++.............................+trrjjjjjjggjjjjjjggggggdddddddddggjjjjggggddggjjjjjtz....+xxrjgggddddddddddjjjjjjjt
(PID.TID 0000.0001) //      7 .................................................................vttvtjg.vttvtjggggddgggddgggjjjjrttrrvxyzzyyyyy+......xxvtrjjggggggjjv+........
(PID.TID 0000.0001) //      6 ...............................................................+zyyyywjjzyyyywjjjjjgggjjrtwx+.........................+yxxyyyxwttvwy............
(PID.TID 0000.0001) //      5 ................................................................yyyyyyyyyyyyyyyyyyyyz.................................zzz+..+yy+................
(PID.TID 0000.0001) //      4 ................................................................................................................................................
(PID.TID 0000.0001) //      3 ................................................................................................................................................
(PID.TID 0000.0001) //      2 ................................................................................................................................................
(PID.TID 0000.0001) //      1 ................................................................................................................................................
(PID.TID 0000.0001) //      0 ................................................................................................................................................
(PID.TID 0000.0001) //     -1 ................................................................................................................................................
(PID.TID 0000.0001) //     -2 ................................................................................................................................................
(PID.TID 0000.0001) //     -3 ................................................................................................................................................
(PID.TID 0000.0001) // =======================================================
(PID.TID 0000.0001) // END OF FIELD                                          =
(PID.TID 0000.0001) // =======================================================
(PID.TID 0000.0001) 
(PID.TID 0000.0001) // =======================================================
(PID.TID 0000.0001) // Field Model Ro_surf (ini_masks_etc)
(PID.TID 0000.0001) // CMIN =          1.000000000000000E+32
(PID.TID 0000.0001) // CMAX =         -1.000000000000000E+32
(PID.TID 0000.0001) // CINT =          0.000000000000000E+00
(PID.TID 0000.0001) // SYMBOLS (CMIN->CMAX): -abcdefghijklmnopqrstuvwxyz+
(PID.TID 0000.0001) //                  0.0: .
(PID.TID 0000.0001) // RANGE I (Lo:Hi:Step):(    -3:   132:     1)
(PID.TID 0000.0001) // RANGE J (Lo:Hi:Step):(    68:    -3:    -1)
(PID.TID 0000.0001) // RANGE K (Lo:Hi:Step):(   1:   1:   1)
(PID.TID 0000.0001) // =======================================================
(PID.TID 0000.0001) // =======================================================
(PID.TID 0000.0001) // END OF FIELD                                          =
(PID.TID 0000.0001) // =======================================================
(PID.TID 0000.0001) 
(PID.TID 0000.0001) // =======================================================
(PID.TID 0000.0001) // Field hFacC at iteration          0
(PID.TID 0000.0001) // CMIN =          1.000000000000000E+00
(PID.TID 0000.0001) // CMAX =          1.000000000000000E+00
(PID.TID 0000.0001) // CINT =          0.000000000000000E+00
(PID.TID 0000.0001) // SYMBOLS (CMIN->CMAX): -abcdefghijklmnopqrstuvwxyz+
(PID.TID 0000.0001) //                  0.0: .
(PID.TID 0000.0001) // RANGE I (Lo:Hi:Step):(    -3:   132:     1)
(PID.TID 0000.0001) // RANGE J (Lo:Hi:Step):(    68:    -3:    -1)
(PID.TID 0000.0001) // RANGE K (Lo:Hi:Step):(   1:   1:   1)
(PID.TID 0000.0001) // =======================================================
(PID.TID 0000.0001) // =======================================================
(PID.TID 0000.0001) // END OF FIELD                                          =
(PID.TID 0000.0001) // =======================================================
(PID.TID 0000.0001) 
(PID.TID 0000.0001) // =======================================================
(PID.TID 0000.0001) // Field hFacW at iteration          0
(PID.TID 0000.0001) // CMIN =          1.000000000000000E+00
(PID.TID 0000.0001) // CMAX =          1.000000000000000E+00
(PID.TID 0000.0001) // CINT =          0.000000000000000E+00
(PID.TID 0000.0001) // SYMBOLS (CMIN->CMAX): -abcdefghijklmnopqrstuvwxyz+
(PID.TID 0000.0001) //                  0.0: .
(PID.TID 0000.0001) // RANGE I (Lo:Hi:Step):(    -3:   132:     1)
(PID.TID 0000.0001) // RANGE J (Lo:Hi:Step):(    68:    -3:    -1)
(PID.TID 0000.0001) // RANGE K (Lo:Hi:Step):(   1:   1:   1)
(PID.TID 0000.0001) // =======================================================
(PID.TID 0000.0001) // =======================================================
(PID.TID 0000.0001) // END OF FIELD                                          =
(PID.TID 0000.0001) // =======================================================
(PID.TID 0000.0001) 
(PID.TID 0000.0001) // =======================================================
(PID.TID 0000.0001) // Field hFacS at iteration          0
(PID.TID 0000.0001) // CMIN =          1.000000000000000E+00
(PID.TID 0000.0001) // CMAX =          1.000000000000000E+00
(PID.TID 0000.0001) // CINT =          0.000000000000000E+00
(PID.TID 0000.0001) // SYMBOLS (CMIN->CMAX): -abcdefghijklmnopqrstuvwxyz+
(PID.TID 0000.0001) //                  0.0: .
(PID.TID 0000.0001) // RANGE I (Lo:Hi:Step):(    -3:   132:     1)
(PID.TID 0000.0001) // RANGE J (Lo:Hi:Step):(    68:    -3:    -1)
(PID.TID 0000.0001) // RANGE K (Lo:Hi:Step):(   1:   1:   1)
(PID.TID 0000.0001) // =======================================================
(PID.TID 0000.0001) // =======================================================
(PID.TID 0000.0001) // END OF FIELD                                          =
(PID.TID 0000.0001) // =======================================================
(PID.TID 0000.0001) 
(PID.TID 0000.0001) GAD_INIT_FIXED: GAD_OlMinSize=  1  0  1
(PID.TID 0000.0001) 
(PID.TID 0000.0001) // ===================================
(PID.TID 0000.0001) // GAD parameters :
(PID.TID 0000.0001) // ===================================
(PID.TID 0000.0001) tempAdvScheme =   /* Temp. Horiz.Advection scheme selector */
(PID.TID 0000.0001)                       2
(PID.TID 0000.0001)     ;
(PID.TID 0000.0001) tempVertAdvScheme =   /* Temp. Vert. Advection scheme selector */
(PID.TID 0000.0001)                       2
(PID.TID 0000.0001)     ;
(PID.TID 0000.0001) tempMultiDimAdvec =   /* use Muti-Dim Advec method for Temp */
(PID.TID 0000.0001)                   F
(PID.TID 0000.0001)     ;
(PID.TID 0000.0001) tempSOM_Advection = /* use 2nd Order Moment Advection for Temp */
(PID.TID 0000.0001)                   F
(PID.TID 0000.0001)     ;
(PID.TID 0000.0001) AdamsBashforthGt = /* apply Adams-Bashforth extrapolation on Gt */
(PID.TID 0000.0001)                   T
(PID.TID 0000.0001)     ;
(PID.TID 0000.0001) AdamsBashforth_T = /* apply Adams-Bashforth extrapolation on Temp */
(PID.TID 0000.0001)                   F
(PID.TID 0000.0001)     ;
(PID.TID 0000.0001) saltAdvScheme =   /* Salt. Horiz.advection scheme selector */
(PID.TID 0000.0001)                       2
(PID.TID 0000.0001)     ;
(PID.TID 0000.0001) saltVertAdvScheme =   /* Salt. Vert. Advection scheme selector */
(PID.TID 0000.0001)                       2
(PID.TID 0000.0001)     ;
(PID.TID 0000.0001) saltMultiDimAdvec =   /* use Muti-Dim Advec method for Salt */
(PID.TID 0000.0001)                   F
(PID.TID 0000.0001)     ;
(PID.TID 0000.0001) saltSOM_Advection = /* use 2nd Order Moment Advection for Salt */
(PID.TID 0000.0001)                   F
(PID.TID 0000.0001)     ;
(PID.TID 0000.0001) AdamsBashforthGs = /* apply Adams-Bashforth extrapolation on Gs */
(PID.TID 0000.0001)                   T
(PID.TID 0000.0001)     ;
(PID.TID 0000.0001) AdamsBashforth_S = /* apply Adams-Bashforth extrapolation on Salt */
(PID.TID 0000.0001)                   F
(PID.TID 0000.0001)     ;
(PID.TID 0000.0001) // ===================================
(PID.TID 0000.0001) PTRACERS_INIT_FIXED: PTRACERS_SOM_Advection(   1) =     F
(PID.TID 0000.0001) PTRACERS_INIT_FIXED: PTRACERS_SOM_Advection(   2) =     F
(PID.TID 0000.0001) PTRACERS_INIT_FIXED: PTRACERS_SOM_Advection(   3) =     F
(PID.TID 0000.0001) PTRACERS_INIT_FIXED: PTRACERS_SOM_Advection(   4) =     F
(PID.TID 0000.0001) PTRACERS_INIT_FIXED: PTRACERS_SOM_Advection(   5) =     F
(PID.TID 0000.0001) PTRACERS_INIT_FIXED: PTRACERS_SOM_Advection(   6) =     F
(PID.TID 0000.0001) PTRACERS_INIT_FIXED: PTRACERS_SOM_Advection(   7) =     F
(PID.TID 0000.0001) PTRACERS_INIT_FIXED: PTRACERS_SOM_Advection(   8) =     F
(PID.TID 0000.0001) PTRACERS_INIT_FIXED: PTRACERS_SOM_Advection(   9) =     F
(PID.TID 0000.0001) PTRACERS_INIT_FIXED: PTRACERS_SOM_Advection(  10) =     F
(PID.TID 0000.0001) PTRACERS_INIT_FIXED: PTRACERS_SOM_Advection(  11) =     F
(PID.TID 0000.0001) PTRACERS_INIT_FIXED: PTRACERS_SOM_Advection(  12) =     F
(PID.TID 0000.0001) PTRACERS_INIT_FIXED: PTRACERS_SOM_Advection(  13) =     F
(PID.TID 0000.0001) PTRACERS_INIT_FIXED: PTRACERS_SOM_Advection(  14) =     F
(PID.TID 0000.0001) PTRACERS_INIT_FIXED: PTRACERS_SOM_Advection(  15) =     F
(PID.TID 0000.0001) PTRACERS_INIT_FIXED: PTRACERS_SOM_Advection(  16) =     F
(PID.TID 0000.0001) PTRACERS_INIT_FIXED: PTRACERS_SOM_Advection(  17) =     F
(PID.TID 0000.0001) PTRACERS_INIT_FIXED: PTRACERS_SOM_Advection(  18) =     F
(PID.TID 0000.0001) PTRACERS_INIT_FIXED: PTRACERS_SOM_Advection(  19) =     F
(PID.TID 0000.0001) PTRACERS_INIT_FIXED: PTRACERS_SOM_Advection(  20) =     F
(PID.TID 0000.0001) PTRACERS_INIT_FIXED: PTRACERS_SOM_Advection(  21) =     F
(PID.TID 0000.0001) PTRACERS_INIT_FIXED: PTRACERS_SOM_Advection(  22) =     F
(PID.TID 0000.0001) PTRACERS_INIT_FIXED: PTRACERS_SOM_Advection(  23) =     F
(PID.TID 0000.0001) PTRACERS_INIT_FIXED: PTRACERS_SOM_Advection(  24) =     F
(PID.TID 0000.0001) PTRACERS_INIT_FIXED: PTRACERS_SOM_Advection(  25) =     F
(PID.TID 0000.0001) PTRACERS_INIT_FIXED: PTRACERS_SOM_Advection(  26) =     F
(PID.TID 0000.0001) PTRACERS_INIT_FIXED: PTRACERS_SOM_Advection(  27) =     F
(PID.TID 0000.0001) PTRACERS_INIT_FIXED: PTRACERS_SOM_Advection(  28) =     F
(PID.TID 0000.0001) PTRACERS_INIT_FIXED: PTRACERS_SOM_Advection(  29) =     F
(PID.TID 0000.0001) PTRACERS_INIT_FIXED: PTRACERS_SOM_Advection(  30) =     F
(PID.TID 0000.0001) PTRACERS_INIT_FIXED: PTRACERS_SOM_Advection(  31) =     F
(PID.TID 0000.0001) PTRACERS_INIT_FIXED: PTRACERS_SOM_Advection(  32) =     F
(PID.TID 0000.0001) PTRACERS_INIT_FIXED: PTRACERS_SOM_Advection(  33) =     F
(PID.TID 0000.0001) PTRACERS_INIT_FIXED: PTRACERS_SOM_Advection(  34) =     F
(PID.TID 0000.0001) PTRACERS_INIT_FIXED: PTRACERS_SOM_Advection(  35) =     F
(PID.TID 0000.0001) PTRACERS_INIT_FIXED: PTRACERS_SOM_Advection(  36) =     F
(PID.TID 0000.0001) PTRACERS_INIT_FIXED: PTRACERS_SOM_Advection(  37) =     F
(PID.TID 0000.0001) PTRACERS_INIT_FIXED: PTRACERS_SOM_Advection(  38) =     F
(PID.TID 0000.0001) PTRACERS_INIT_FIXED: PTRACERS_SOM_Advection(  39) =     F
(PID.TID 0000.0001) PTRACERS_INIT_FIXED: PTRACERS_SOM_Advection(  40) =     F
(PID.TID 0000.0001) PTRACERS_INIT_FIXED: PTRACERS_SOM_Advection(  41) =     F
(PID.TID 0000.0001) PTRACERS_INIT_FIXED: PTRACERS_SOM_Advection(  42) =     F
(PID.TID 0000.0001) PTRACERS_INIT_FIXED: PTRACERS_SOM_Advection(  43) =     F
(PID.TID 0000.0001) PTRACERS_INIT_FIXED: PTRACERS_SOM_Advection(  44) =     F
(PID.TID 0000.0001) PTRACERS_INIT_FIXED: PTRACERS_SOM_Advection(  45) =     F
(PID.TID 0000.0001) PTRACERS_INIT_FIXED: PTRACERS_SOM_Advection(  46) =     F
(PID.TID 0000.0001) PTRACERS_INIT_FIXED: PTRACERS_SOM_Advection(  47) =     F
(PID.TID 0000.0001) PTRACERS_INIT_FIXED: PTRACERS_SOM_Advection(  48) =     F
(PID.TID 0000.0001) PTRACERS_INIT_FIXED: PTRACERS_SOM_Advection(  49) =     F
(PID.TID 0000.0001) PTRACERS_INIT_FIXED: PTRACERS_SOM_Advection(  50) =     F
(PID.TID 0000.0001) PTRACERS_INIT_FIXED: PTRACERS_SOM_Advection(  51) =     F
(PID.TID 0000.0001) PTRACERS_INIT_FIXED: PTRACERS_SOM_Advection(  52) =     F
(PID.TID 0000.0001) PTRACERS_INIT_FIXED: PTRACERS_SOM_Advection(  53) =     F
(PID.TID 0000.0001) PTRACERS_INIT_FIXED: PTRACERS_SOM_Advection(  54) =     F
(PID.TID 0000.0001) PTRACERS_INIT_FIXED: PTRACERS_SOM_Advection(  55) =     F
(PID.TID 0000.0001) PTRACERS_INIT_FIXED: PTRACERS_SOM_Advection(  56) =     F
(PID.TID 0000.0001) PTRACERS_INIT_FIXED: PTRACERS_SOM_Advection(  57) =     F
(PID.TID 0000.0001) PTRACERS_INIT_FIXED: PTRACERS_SOM_Advection(  58) =     F
(PID.TID 0000.0001) PTRACERS_INIT_FIXED: PTRACERS_SOM_Advection(  59) =     F
(PID.TID 0000.0001) PTRACERS_INIT_FIXED: PTRACERS_SOM_Advection(  60) =     F
(PID.TID 0000.0001) PTRACERS_INIT_FIXED: PTRACERS_SOM_Advection(  61) =     F
(PID.TID 0000.0001) PTRACERS_INIT_FIXED: PTRACERS_SOM_Advection(  62) =     F
(PID.TID 0000.0001) PTRACERS_INIT_FIXED: PTRACERS_SOM_Advection(  63) =     F
(PID.TID 0000.0001) PTRACERS_INIT_FIXED: PTRACERS_SOM_Advection(  64) =     F
(PID.TID 0000.0001) PTRACERS_INIT_FIXED: PTRACERS_SOM_Advection(  65) =     F
(PID.TID 0000.0001) PTRACERS_INIT_FIXED: PTRACERS_SOM_Advection(  66) =     F
(PID.TID 0000.0001) PTRACERS_INIT_FIXED: PTRACERS_SOM_Advection(  67) =     F
(PID.TID 0000.0001) PTRACERS_INIT_FIXED: PTRACERS_SOM_Advection(  68) =     F
(PID.TID 0000.0001) PTRACERS_INIT_FIXED: PTRACERS_SOM_Advection(  69) =     F
(PID.TID 0000.0001) PTRACERS_INIT_FIXED: PTRACERS_SOM_Advection(  70) =     F
(PID.TID 0000.0001) PTRACERS_INIT_FIXED: PTRACERS_SOM_Advection(  71) =     F
(PID.TID 0000.0001) PTRACERS_INIT_FIXED: PTRACERS_SOM_Advection(  72) =     F
(PID.TID 0000.0001) PTRACERS_INIT_FIXED: PTRACERS_SOM_Advection(  73) =     F
(PID.TID 0000.0001) PTRACERS_INIT_FIXED: PTRACERS_SOM_Advection(  74) =     F
(PID.TID 0000.0001) PTRACERS_INIT_FIXED: PTRACERS_SOM_Advection(  75) =     F
(PID.TID 0000.0001) PTRACERS_INIT_FIXED: PTRACERS_SOM_Advection(  76) =     F
(PID.TID 0000.0001) PTRACERS_INIT_FIXED: PTRACERS_SOM_Advection(  77) =     F
(PID.TID 0000.0001) PTRACERS_INIT_FIXED: PTRACERS_SOM_Advection(  78) =     F
(PID.TID 0000.0001) PTRACERS_INIT_FIXED: PTRACERS_SOM_Advection(  79) =     F
(PID.TID 0000.0001) PTRACERS_INIT_FIXED: PTRACERS_SOM_Advection(  80) =     F
(PID.TID 0000.0001) PTRACERS_INIT_FIXED: PTRACERS_SOM_Advection(  81) =     F
(PID.TID 0000.0001) PTRACERS_INIT_FIXED: PTRACERS_SOM_Advection(  82) =     F
(PID.TID 0000.0001) PTRACERS_INIT_FIXED: PTRACERS_SOM_Advection(  83) =     F
(PID.TID 0000.0001) PTRACERS_INIT_FIXED: PTRACERS_SOM_Advection(  84) =     F
(PID.TID 0000.0001) PTRACERS_INIT_FIXED: PTRACERS_SOM_Advection(  85) =     F
(PID.TID 0000.0001) PTRACERS_INIT_FIXED: PTRACERS_SOM_Advection(  86) =     F
(PID.TID 0000.0001) PTRACERS_INIT_FIXED: PTRACERS_SOM_Advection(  87) =     F
(PID.TID 0000.0001) PTRACERS_INIT_FIXED: PTRACERS_SOM_Advection(  88) =     F
(PID.TID 0000.0001) PTRACERS_INIT_FIXED: PTRACERS_SOM_Advection(  89) =     F
(PID.TID 0000.0001) PTRACERS_INIT_FIXED: PTRACERS_SOM_Advection(  90) =     F
(PID.TID 0000.0001) PTRACERS_INIT_FIXED: PTRACERS_SOM_Advection(  91) =     F
(PID.TID 0000.0001) PTRACERS_INIT_FIXED: PTRACERS_SOM_Advection(  92) =     F
(PID.TID 0000.0001) PTRACERS_INIT_FIXED: PTRACERS_SOM_Advection(  93) =     F
(PID.TID 0000.0001) PTRACERS_INIT_FIXED: PTRACERS_SOM_Advection(  94) =     F
(PID.TID 0000.0001) PTRACERS_INIT_FIXED: PTRACERS_SOM_Advection(  95) =     F
(PID.TID 0000.0001) PTRACERS_INIT_FIXED: PTRACERS_SOM_Advection(  96) =     F
(PID.TID 0000.0001) PTRACERS_INIT_FIXED: PTRACERS_SOM_Advection(  97) =     F
(PID.TID 0000.0001) PTRACERS_INIT_FIXED: PTRACERS_SOM_Advection(  98) =     F
(PID.TID 0000.0001) PTRACERS_INIT_FIXED: PTRACERS_SOM_Advection(  99) =     F
(PID.TID 0000.0001) PTRACERS_INIT_FIXED: GAD_OlMinSize=  2  0  1
(PID.TID 0000.0001) // =======================================================
(PID.TID 0000.0001) // Darwin loading parameters
(PID.TID 0000.0001) // =======================================================
(PID.TID 0000.0001) %MON fCori_max                    =   1.4579854531444E-04
(PID.TID 0000.0001) %MON fCori_min                    =  -1.4579854531444E-04
(PID.TID 0000.0001) %MON fCori_mean                   =   9.5291206566109E-22
(PID.TID 0000.0001) %MON fCori_sd                     =   1.0312619976228E-04
(PID.TID 0000.0001) %MON fCoriG_max                   =   1.4566679669714E-04
(PID.TID 0000.0001) %MON fCoriG_min                   =  -1.4584247033981E-04
(PID.TID 0000.0001) %MON fCoriG_mean                  =  -2.2787885990595E-06
(PID.TID 0000.0001) %MON fCoriG_sd                    =   1.0310101939326E-04
(PID.TID 0000.0001) %MON fCoriCos_max                 =   1.4579854531444E-04
(PID.TID 0000.0001) %MON fCoriCos_min                 =   3.5791533929553E-06
(PID.TID 0000.0001) %MON fCoriCos_mean                =   9.2855522572228E-05
(PID.TID 0000.0001) %MON fCoriCos_sd                  =   4.4864964117307E-05
(PID.TID 0000.0001) INI_CG2D: CG2D normalisation factor =  6.8918025187312258E-05
(PID.TID 0000.0001) 
(PID.TID 0000.0001) // =======================================================
(PID.TID 0000.0001) // Model configuration
(PID.TID 0000.0001) // =======================================================
(PID.TID 0000.0001) //
(PID.TID 0000.0001) // "Physical" paramters ( PARM01 in namelist )
(PID.TID 0000.0001) //
(PID.TID 0000.0001) buoyancyRelation = /* Type of relation to get Buoyancy */
(PID.TID 0000.0001)               'OCEANIC'
(PID.TID 0000.0001)     ;
(PID.TID 0000.0001) fluidIsAir   =  /* fluid major constituent is Air */
(PID.TID 0000.0001)                   F
(PID.TID 0000.0001)     ;
(PID.TID 0000.0001) fluidIsWater =  /* fluid major constituent is Water */
(PID.TID 0000.0001)                   T
(PID.TID 0000.0001)     ;
(PID.TID 0000.0001) usingPCoords =  /* use p (or p*) vertical coordinate */
(PID.TID 0000.0001)                   F
(PID.TID 0000.0001)     ;
(PID.TID 0000.0001) usingZCoords =  /* use z (or z*) vertical coordinate */
(PID.TID 0000.0001)                   T
(PID.TID 0000.0001)     ;
(PID.TID 0000.0001) tRef =   /* Reference temperature profile ( oC or K ) */
(PID.TID 0000.0001)    15 @  2.000000000000000E+01              /* K =  1: 15 */
(PID.TID 0000.0001)     ;
(PID.TID 0000.0001) sRef =   /* Reference salinity profile ( psu ) */
(PID.TID 0000.0001)    15 @  3.500000000000000E+01              /* K =  1: 15 */
(PID.TID 0000.0001)     ;
(PID.TID 0000.0001) viscAh  =   /* Lateral eddy viscosity ( m^2/s ) */
(PID.TID 0000.0001)                 5.000000000000000E+05
(PID.TID 0000.0001)     ;
(PID.TID 0000.0001) viscAhMax = /* Maximum lateral eddy viscosity ( m^2/s ) */
(PID.TID 0000.0001)                 1.000000000000000E+21
(PID.TID 0000.0001)     ;
(PID.TID 0000.0001) viscAhGrid = /* Grid dependent lateral eddy viscosity ( non-dim. ) */
(PID.TID 0000.0001)                 0.000000000000000E+00
(PID.TID 0000.0001)     ;
(PID.TID 0000.0001) useFullLeith = /* Use Full Form of Leith Viscosity on/off flag*/
(PID.TID 0000.0001)                   F
(PID.TID 0000.0001)     ;
(PID.TID 0000.0001) useStrainTensionVisc= /* Use StrainTension Form of Viscous Operator flag*/
(PID.TID 0000.0001)                   F
(PID.TID 0000.0001)     ;
(PID.TID 0000.0001) useAreaViscLength = /* Use area for visc length instead of geom. mean*/
(PID.TID 0000.0001)                   F
(PID.TID 0000.0001)     ;
(PID.TID 0000.0001) viscC2leith = /* Leith harmonic visc. factor (on grad(vort),non-dim.) */
(PID.TID 0000.0001)                 0.000000000000000E+00
(PID.TID 0000.0001)     ;
(PID.TID 0000.0001) viscC2leithD = /* Leith harmonic viscosity factor (on grad(div),non-dim.)*/
(PID.TID 0000.0001)                 0.000000000000000E+00
(PID.TID 0000.0001)     ;
(PID.TID 0000.0001) viscC2smag = /* Smagorinsky harmonic viscosity factor (non-dim.) */
(PID.TID 0000.0001)                 0.000000000000000E+00
(PID.TID 0000.0001)     ;
(PID.TID 0000.0001) viscA4  =   /* Lateral biharmonic viscosity ( m^4/s ) */
(PID.TID 0000.0001)                 0.000000000000000E+00
(PID.TID 0000.0001)     ;
(PID.TID 0000.0001) viscA4Max = /* Maximum biharmonic viscosity ( m^2/s ) */
(PID.TID 0000.0001)                 1.000000000000000E+21
(PID.TID 0000.0001)     ;
(PID.TID 0000.0001) viscA4Grid = /* Grid dependent biharmonic viscosity ( non-dim. ) */
(PID.TID 0000.0001)                 0.000000000000000E+00
(PID.TID 0000.0001)     ;
(PID.TID 0000.0001) viscC4leith = /* Leith biharm viscosity factor (on grad(vort), non-dim.)*/
(PID.TID 0000.0001)                 0.000000000000000E+00
(PID.TID 0000.0001)     ;
(PID.TID 0000.0001) viscC4leithD = /* Leith biharm viscosity factor (on grad(div), non-dim.) */
(PID.TID 0000.0001)                 0.000000000000000E+00
(PID.TID 0000.0001)     ;
(PID.TID 0000.0001) viscC4Smag = /* Smagorinsky biharm viscosity factor (non-dim) */
(PID.TID 0000.0001)                 0.000000000000000E+00
(PID.TID 0000.0001)     ;
(PID.TID 0000.0001) no_slip_sides =  /* Viscous BCs: No-slip sides */
(PID.TID 0000.0001)                   T
(PID.TID 0000.0001)     ;
(PID.TID 0000.0001) sideDragFactor = /* side-drag scaling factor (non-dim) */
(PID.TID 0000.0001)                 2.000000000000000E+00
(PID.TID 0000.0001)     ;
(PID.TID 0000.0001) viscArNr = /* vertical profile of vertical viscosity ( m^2/s )*/
(PID.TID 0000.0001)    15 @  1.000000000000000E-03              /* K =  1: 15 */
(PID.TID 0000.0001)     ;
(PID.TID 0000.0001) no_slip_bottom =  /* Viscous BCs: No-slip bottom */
(PID.TID 0000.0001)                   T
(PID.TID 0000.0001)     ;
(PID.TID 0000.0001) bottomDragLinear = /* linear bottom-drag coefficient ( m/s ) */
(PID.TID 0000.0001)                 0.000000000000000E+00
(PID.TID 0000.0001)     ;
(PID.TID 0000.0001) bottomDragQuadratic = /* quadratic bottom-drag coefficient (-) */
(PID.TID 0000.0001)                 0.000000000000000E+00
(PID.TID 0000.0001)     ;
(PID.TID 0000.0001) diffKhT =   /* Laplacian diffusion of heat laterally ( m^2/s ) */
(PID.TID 0000.0001)                 0.000000000000000E+00
(PID.TID 0000.0001)     ;
(PID.TID 0000.0001) diffK4T =   /* Biharmonic diffusion of heat laterally ( m^4/s ) */
(PID.TID 0000.0001)                 0.000000000000000E+00
(PID.TID 0000.0001)     ;
(PID.TID 0000.0001) diffKhS =   /* Laplacian diffusion of salt laterally ( m^2/s ) */
(PID.TID 0000.0001)                 0.000000000000000E+00
(PID.TID 0000.0001)     ;
(PID.TID 0000.0001) diffK4S =   /* Biharmonic diffusion of salt laterally ( m^4/s ) */
(PID.TID 0000.0001)                 0.000000000000000E+00
(PID.TID 0000.0001)     ;
(PID.TID 0000.0001) diffKrNrT = /* vertical profile of vertical diffusion of Temp ( m^2/s )*/
(PID.TID 0000.0001)    15 @  5.000000000000000E-05              /* K =  1: 15 */
(PID.TID 0000.0001)     ;
(PID.TID 0000.0001) diffKrNrS = /* vertical profile of vertical diffusion of Salt ( m^2/s )*/
(PID.TID 0000.0001)    15 @  5.000000000000000E-05              /* K =  1: 15 */
(PID.TID 0000.0001)     ;
(PID.TID 0000.0001) diffKrBL79surf = /* Surface diffusion for Bryan and Lewis 79 ( m^2/s ) */
(PID.TID 0000.0001)                 0.000000000000000E+00
(PID.TID 0000.0001)     ;
(PID.TID 0000.0001) diffKrBL79deep = /* Deep diffusion for Bryan and Lewis 1979 ( m^2/s ) */
(PID.TID 0000.0001)                 0.000000000000000E+00
(PID.TID 0000.0001)     ;
(PID.TID 0000.0001) diffKrBL79scl = /* Depth scale for Bryan and Lewis 1979 ( m ) */
(PID.TID 0000.0001)                 2.000000000000000E+02
(PID.TID 0000.0001)     ;
(PID.TID 0000.0001) diffKrBL79Ho = /* Turning depth for Bryan and Lewis 1979 ( m ) */
(PID.TID 0000.0001)                -2.000000000000000E+03
(PID.TID 0000.0001)     ;
(PID.TID 0000.0001) ivdc_kappa = /* Implicit Vertical Diffusivity for Convection ( m^2/s) */
(PID.TID 0000.0001)                 1.000000000000000E+02
(PID.TID 0000.0001)     ;
(PID.TID 0000.0001) hMixCriteria=  /* Criteria for mixed-layer diagnostic */
(PID.TID 0000.0001)                -8.000000000000000E-01
(PID.TID 0000.0001)     ;
(PID.TID 0000.0001) dRhoSmall =  /* Parameter for mixed-layer diagnostic */
(PID.TID 0000.0001)                 1.000000000000000E-06
(PID.TID 0000.0001)     ;
(PID.TID 0000.0001) hMixSmooth=  /* Smoothing parameter for mixed-layer diagnostic */
(PID.TID 0000.0001)                 0.000000000000000E+00
(PID.TID 0000.0001)     ;
(PID.TID 0000.0001) eosType =  /* Type of Equation of State */
(PID.TID 0000.0001)               'POLY3 '
(PID.TID 0000.0001)     ;
(PID.TID 0000.0001) tAlpha =   /* Linear EOS thermal expansion coefficient ( 1/oC ) */
(PID.TID 0000.0001)                 2.000000000000000E-04
(PID.TID 0000.0001)     ;
(PID.TID 0000.0001) sBeta =   /* Linear EOS haline contraction coefficient ( 1/psu ) */
(PID.TID 0000.0001)                 7.400000000000000E-04
(PID.TID 0000.0001)     ;
(PID.TID 0000.0001)   1  13.497  32.600  24.570  -0.202   0.771  -0.005  -0.002   0.000   0.000   0.000   0.000   0.000
(PID.TID 0000.0001)   2  13.488  32.600  24.840  -0.203   0.770  -0.005  -0.002   0.000   0.000   0.000   0.000   0.000
(PID.TID 0000.0001)   3  13.476  32.600  25.221  -0.205   0.770  -0.005  -0.002   0.000   0.000   0.000   0.000   0.000
(PID.TID 0000.0001)   4   8.469  35.150  28.657  -0.163   0.781  -0.005  -0.002   0.001   0.000   0.000   0.000   0.000
(PID.TID 0000.0001)   5   8.451  35.150  29.405  -0.167   0.780  -0.005  -0.002   0.001   0.000   0.000   0.000   0.000
(PID.TID 0000.0001)   6   5.940  34.900  30.574  -0.145   0.784  -0.006  -0.002   0.001   0.000   0.000   0.000   0.000
(PID.TID 0000.0001)   7   4.425  34.900  31.991  -0.135   0.786  -0.006  -0.003   0.000   0.000   0.000   0.000   0.000
(PID.TID 0000.0001)   8   2.911  34.750  33.505  -0.125   0.787  -0.006  -0.003  -0.000   0.000   0.000   0.000   0.000
(PID.TID 0000.0001)   9   1.893  34.800  35.333  -0.123   0.787  -0.006  -0.003  -0.000   0.000   0.000   0.000   0.000
(PID.TID 0000.0001)  10   1.367  34.800  37.279  -0.129   0.785  -0.006  -0.003  -0.001   0.000   0.000   0.000   0.000
(PID.TID 0000.0001)  11   1.328  34.800  39.372  -0.141   0.781  -0.006  -0.003  -0.002   0.000   0.000   0.000   0.000
(PID.TID 0000.0001)  12   0.792  34.800  41.739  -0.149   0.778  -0.006  -0.003  -0.001   0.000   0.000   0.000   0.000
(PID.TID 0000.0001)  13   0.737  34.750  44.192  -0.163   0.774  -0.005  -0.002  -0.003   0.000   0.000   0.000   0.000
(PID.TID 0000.0001)  14   0.188  34.750  46.956  -0.174   0.770  -0.005  -0.002  -0.002   0.000   0.000   0.000   0.000
(PID.TID 0000.0001)  15   0.596  34.750  49.726  -0.195   0.764  -0.005  -0.002  -0.001   0.000   0.000   0.000   0.000
(PID.TID 0000.0001) rhonil =   /* Reference density ( kg/m^3 ) */
(PID.TID 0000.0001)                 1.035000000000000E+03
(PID.TID 0000.0001)     ;
(PID.TID 0000.0001) rhoConst =   /* Reference density ( kg/m^3 ) */
(PID.TID 0000.0001)                 1.035000000000000E+03
(PID.TID 0000.0001)     ;
(PID.TID 0000.0001) rhoFacC = /* normalized Reference density @ cell-Center (-) */
(PID.TID 0000.0001)    15 @  1.000000000000000E+00              /* K =  1: 15 */
(PID.TID 0000.0001)     ;
(PID.TID 0000.0001) rhoFacF = /* normalized Reference density @ W-Interface (-) */
(PID.TID 0000.0001)    16 @  1.000000000000000E+00              /* K =  1: 16 */
(PID.TID 0000.0001)     ;
(PID.TID 0000.0001) rhoConstFresh =   /* Reference density ( kg/m^3 ) */
(PID.TID 0000.0001)                 1.035000000000000E+03
(PID.TID 0000.0001)     ;
(PID.TID 0000.0001) gravity =   /* Gravitational acceleration ( m/s^2 ) */
(PID.TID 0000.0001)                 9.810000000000000E+00
(PID.TID 0000.0001)     ;
(PID.TID 0000.0001) gBaro =   /* Barotropic gravity ( m/s^2 ) */
(PID.TID 0000.0001)                 9.810000000000000E+00
(PID.TID 0000.0001)     ;
(PID.TID 0000.0001) rotationPeriod =   /* Rotation Period ( s ) */
(PID.TID 0000.0001)                 8.616400000000000E+04
(PID.TID 0000.0001)     ;
(PID.TID 0000.0001) omega =   /* Angular velocity ( rad/s ) */
(PID.TID 0000.0001)                 7.292123516990375E-05
(PID.TID 0000.0001)     ;
(PID.TID 0000.0001) f0 =   /* Reference coriolis parameter ( 1/s ) */
(PID.TID 0000.0001)                 1.000000000000000E-04
(PID.TID 0000.0001)     ;
(PID.TID 0000.0001) beta =   /* Beta ( 1/(m.s) ) */
(PID.TID 0000.0001)                 9.999999999999999E-12
(PID.TID 0000.0001)     ;
(PID.TID 0000.0001) fPrime =   /* Second coriolis parameter ( 1/s ) */
(PID.TID 0000.0001)                 0.000000000000000E+00
(PID.TID 0000.0001)     ;
(PID.TID 0000.0001) rigidLid =   /* Rigid lid on/off flag */
(PID.TID 0000.0001)                   F
(PID.TID 0000.0001)     ;
(PID.TID 0000.0001) implicitFreeSurface =   /* Implicit free surface on/off flag */
(PID.TID 0000.0001)                   T
(PID.TID 0000.0001)     ;
(PID.TID 0000.0001) freeSurfFac =   /* Implicit free surface factor */
(PID.TID 0000.0001)                 1.000000000000000E+00
(PID.TID 0000.0001)     ;
(PID.TID 0000.0001) implicSurfPress =  /* Surface Pressure implicit factor (0-1)*/
(PID.TID 0000.0001)                 1.000000000000000E+00
(PID.TID 0000.0001)     ;
(PID.TID 0000.0001) implicDiv2Dflow =  /* Barot. Flow Div. implicit factor (0-1)*/
(PID.TID 0000.0001)                 1.000000000000000E+00
(PID.TID 0000.0001)     ;
(PID.TID 0000.0001) exactConserv =  /* Exact Volume Conservation on/off flag*/
(PID.TID 0000.0001)                   F
(PID.TID 0000.0001)     ;
(PID.TID 0000.0001) linFSConserveTr = /* Tracer correction for Lin Free Surface on/off flag*/
(PID.TID 0000.0001)                   F
(PID.TID 0000.0001)     ;
(PID.TID 0000.0001) uniformLin_PhiSurf = /* use uniform Bo_surf on/off flag*/
(PID.TID 0000.0001)                   T
(PID.TID 0000.0001)     ;
(PID.TID 0000.0001) hFacMin =   /* minimum partial cell factor (hFac) */
(PID.TID 0000.0001)                 1.000000000000000E+00
(PID.TID 0000.0001)     ;
(PID.TID 0000.0001) hFacMinDr = /* minimum partial cell thickness ( m) */
(PID.TID 0000.0001)                 1.000000000000000E+00
(PID.TID 0000.0001)     ;
(PID.TID 0000.0001) nonlinFreeSurf = /* Non-linear Free Surf. options (-1,0,1,2,3)*/
(PID.TID 0000.0001)                       0
(PID.TID 0000.0001)      -1,0= Off ; 1,2,3= On, 2=+rescale gU,gV, 3=+update cg2d solv.
(PID.TID 0000.0001)     ;
(PID.TID 0000.0001) hFacInf =   /* lower threshold for hFac (nonlinFreeSurf only)*/
(PID.TID 0000.0001)                 2.000000000000000E-01
(PID.TID 0000.0001)     ;
(PID.TID 0000.0001) hFacSup =   /* upper threshold for hFac (nonlinFreeSurf only)*/
(PID.TID 0000.0001)                 2.000000000000000E+00
(PID.TID 0000.0001)     ;
(PID.TID 0000.0001) select_rStar = /* r* Vertical coord. options (=0 r coord.; >0 uses r*)*/
(PID.TID 0000.0001)                       0
(PID.TID 0000.0001)     ;
(PID.TID 0000.0001) selectAddFluid = /* option for mass source/sink of fluid (=0: off) */
(PID.TID 0000.0001)                       0
(PID.TID 0000.0001)     ;
(PID.TID 0000.0001) useRealFreshWaterFlux = /* Real Fresh Water Flux on/off flag*/
(PID.TID 0000.0001)                   F
(PID.TID 0000.0001)     ;
(PID.TID 0000.0001) temp_EvPrRn = /* Temp. of Evap/Prec/R (UNSET=use local T)(oC)*/
(PID.TID 0000.0001)                 1.234567000000000E+05
(PID.TID 0000.0001)     ;
(PID.TID 0000.0001) salt_EvPrRn = /* Salin. of Evap/Prec/R (UNSET=use local S)(psu)*/
(PID.TID 0000.0001)                 0.000000000000000E+00
(PID.TID 0000.0001)     ;
(PID.TID 0000.0001) temp_addMass = /* Temp. of addMass array (UNSET=use local T)(oC)*/
(PID.TID 0000.0001)                 1.234567000000000E+05
(PID.TID 0000.0001)     ;
(PID.TID 0000.0001) salt_addMass = /* Salin. of addMass array (UNSET=use local S)(psu)*/
(PID.TID 0000.0001)                 0.000000000000000E+00
(PID.TID 0000.0001)     ;
(PID.TID 0000.0001) convertFW2Salt = /* convert F.W. Flux to Salt Flux (-1=use local S)(psu)*/
(PID.TID 0000.0001)                 3.500000000000000E+01
(PID.TID 0000.0001)     ;
(PID.TID 0000.0001) use3Dsolver = /* use 3-D pressure solver on/off flag */
(PID.TID 0000.0001)                   F
(PID.TID 0000.0001)     ;
(PID.TID 0000.0001) nonHydrostatic =  /* Non-Hydrostatic on/off flag */
(PID.TID 0000.0001)                   F
(PID.TID 0000.0001)     ;
(PID.TID 0000.0001) nh_Am2 = /* Non-Hydrostatic terms scaling factor */
(PID.TID 0000.0001)                 1.000000000000000E+00
(PID.TID 0000.0001)     ;
(PID.TID 0000.0001) implicitNHPress = /* Non-Hyd Pressure implicit factor (0-1)*/
(PID.TID 0000.0001)                 1.000000000000000E+00
(PID.TID 0000.0001)     ;
(PID.TID 0000.0001) selectNHfreeSurf = /* Non-Hyd (free-)Surface option */
(PID.TID 0000.0001)                       0
(PID.TID 0000.0001)     ;
(PID.TID 0000.0001) quasiHydrostatic = /* Quasi-Hydrostatic on/off flag */
(PID.TID 0000.0001)                   F
(PID.TID 0000.0001)     ;
(PID.TID 0000.0001) calc_wVelocity = /* vertical velocity calculation on/off flag */
(PID.TID 0000.0001)                   T
(PID.TID 0000.0001)     ;
(PID.TID 0000.0001) momStepping =  /* Momentum equation on/off flag */
(PID.TID 0000.0001)                   T
(PID.TID 0000.0001)     ;
(PID.TID 0000.0001) vectorInvariantMomentum= /* Vector-Invariant Momentum on/off */
(PID.TID 0000.0001)                   F
(PID.TID 0000.0001)     ;
(PID.TID 0000.0001) momAdvection =  /* Momentum advection on/off flag */
(PID.TID 0000.0001)                   T
(PID.TID 0000.0001)     ;
(PID.TID 0000.0001) momViscosity =  /* Momentum viscosity on/off flag */
(PID.TID 0000.0001)                   T
(PID.TID 0000.0001)     ;
(PID.TID 0000.0001) momImplVertAdv= /* Momentum implicit vert. advection on/off*/
(PID.TID 0000.0001)                   F
(PID.TID 0000.0001)     ;
(PID.TID 0000.0001) implicitViscosity = /* Implicit viscosity on/off flag */
(PID.TID 0000.0001)                   T
(PID.TID 0000.0001)     ;
(PID.TID 0000.0001) metricTerms =  /* metric-Terms on/off flag */
(PID.TID 0000.0001)                   T
(PID.TID 0000.0001)     ;
(PID.TID 0000.0001) useNHMTerms = /* Non-Hydrostatic Metric-Terms on/off */
(PID.TID 0000.0001)                   F
(PID.TID 0000.0001)     ;
(PID.TID 0000.0001) selectCoriMap = /* Coriolis Map options (0,1,2,3)*/
(PID.TID 0000.0001)                       2
(PID.TID 0000.0001)     0= f-Plane ; 1= Beta-Plane ; 2= Spherical ; 3= read from file
(PID.TID 0000.0001)     ;
(PID.TID 0000.0001) use3dCoriolis = /* 3-D Coriolis on/off flag */
(PID.TID 0000.0001)                   F
(PID.TID 0000.0001)     ;
(PID.TID 0000.0001) useCoriolis =  /* Coriolis on/off flag */
(PID.TID 0000.0001)                   T
(PID.TID 0000.0001)     ;
(PID.TID 0000.0001) useCDscheme =  /* CD scheme on/off flag */
(PID.TID 0000.0001)                   T
(PID.TID 0000.0001)     ;
(PID.TID 0000.0001) useEnergyConservingCoriolis= /* Flx-Form Coriolis scheme flag */
(PID.TID 0000.0001)                   F
(PID.TID 0000.0001)     ;
(PID.TID 0000.0001) useJamartWetPoints= /* Coriolis WetPoints method flag */
(PID.TID 0000.0001)                   F
(PID.TID 0000.0001)     ;
(PID.TID 0000.0001) useJamartMomAdv= /* V.I Non-linear terms Jamart flag */
(PID.TID 0000.0001)                   F
(PID.TID 0000.0001)     ;
(PID.TID 0000.0001) useAbsVorticity= /* V.I Works with f+zeta in Coriolis */
(PID.TID 0000.0001)                   F
(PID.TID 0000.0001)     ;
(PID.TID 0000.0001) selectVortScheme= /* V.I Scheme selector for Vorticity-Term */
(PID.TID 0000.0001)               123456789
(PID.TID 0000.0001)    = 0 : enstrophy (Shallow-Water Eq.) conserving scheme by Sadourny, JAS 75
(PID.TID 0000.0001)    = 1 : same as 0 with modified hFac
(PID.TID 0000.0001)    = 2 : energy conserving scheme (used by Sadourny in JAS 75 paper)
(PID.TID 0000.0001)    = 3 : energy (general) and enstrophy (2D, nonDiv.) conserving scheme
(PID.TID 0000.0001)          from Sadourny (Burridge & Haseler, ECMWF Rep.4, 1977)
(PID.TID 0000.0001)     ;
(PID.TID 0000.0001) upwindVorticity= /* V.I Upwind bias vorticity flag */
(PID.TID 0000.0001)                   F
(PID.TID 0000.0001)     ;
(PID.TID 0000.0001) highOrderVorticity= /* V.I High order vort. advect. flag */
(PID.TID 0000.0001)                   F
(PID.TID 0000.0001)     ;
(PID.TID 0000.0001) upwindShear= /* V.I Upwind vertical Shear advection flag */
(PID.TID 0000.0001)                   F
(PID.TID 0000.0001)     ;
(PID.TID 0000.0001) selectKEscheme= /* V.I Kinetic Energy scheme selector */
(PID.TID 0000.0001)                       0
(PID.TID 0000.0001)     ;
(PID.TID 0000.0001) momForcing =  /* Momentum forcing on/off flag */
(PID.TID 0000.0001)                   T
(PID.TID 0000.0001)     ;
(PID.TID 0000.0001) momPressureForcing =  /* Momentum pressure term on/off flag */
(PID.TID 0000.0001)                   T
(PID.TID 0000.0001)     ;
(PID.TID 0000.0001) implicitIntGravWave= /* Implicit Internal Gravity Wave flag */
(PID.TID 0000.0001)                   F
(PID.TID 0000.0001)     ;
(PID.TID 0000.0001) staggerTimeStep =   /* Stagger time stepping on/off flag */
(PID.TID 0000.0001)                   F
(PID.TID 0000.0001)     ;
(PID.TID 0000.0001) multiDimAdvection =   /* enable/disable Multi-Dim Advection */
(PID.TID 0000.0001)                   F
(PID.TID 0000.0001)     ;
(PID.TID 0000.0001) useMultiDimAdvec =   /* Multi-Dim Advection is/is-not used */
(PID.TID 0000.0001)                   F
(PID.TID 0000.0001)     ;
(PID.TID 0000.0001) implicitDiffusion = /* Implicit Diffusion on/off flag */
(PID.TID 0000.0001)                   T
(PID.TID 0000.0001)     ;
(PID.TID 0000.0001) tempStepping =  /* Temperature equation on/off flag */
(PID.TID 0000.0001)                   T
(PID.TID 0000.0001)     ;
(PID.TID 0000.0001) tempAdvection=  /* Temperature advection on/off flag */
(PID.TID 0000.0001)                   T
(PID.TID 0000.0001)     ;
(PID.TID 0000.0001) tempImplVertAdv = /* Temp. implicit vert. advection on/off */
(PID.TID 0000.0001)                   F
(PID.TID 0000.0001)     ;
(PID.TID 0000.0001) tempForcing  =  /* Temperature forcing on/off flag */
(PID.TID 0000.0001)                   T
(PID.TID 0000.0001)     ;
(PID.TID 0000.0001) tempIsActiveTr = /* Temp. is a dynamically Active Tracer */
(PID.TID 0000.0001)                   T
(PID.TID 0000.0001)     ;
(PID.TID 0000.0001) saltStepping =  /* Salinity equation on/off flag */
(PID.TID 0000.0001)                   T
(PID.TID 0000.0001)     ;
(PID.TID 0000.0001) saltAdvection=  /* Salinity advection on/off flag */
(PID.TID 0000.0001)                   T
(PID.TID 0000.0001)     ;
(PID.TID 0000.0001) saltImplVertAdv = /* Sali. implicit vert. advection on/off */
(PID.TID 0000.0001)                   F
(PID.TID 0000.0001)     ;
(PID.TID 0000.0001) saltForcing  =  /* Salinity forcing on/off flag */
(PID.TID 0000.0001)                   T
(PID.TID 0000.0001)     ;
(PID.TID 0000.0001) saltIsActiveTr = /* Salt  is a dynamically Active Tracer */
(PID.TID 0000.0001)                   T
(PID.TID 0000.0001)     ;
(PID.TID 0000.0001)  readBinaryPrec = /* Precision used for reading binary files */
(PID.TID 0000.0001)                      32
(PID.TID 0000.0001)     ;
(PID.TID 0000.0001) writeBinaryPrec = /* Precision used for writing binary files */
(PID.TID 0000.0001)                      32
(PID.TID 0000.0001)     ;
(PID.TID 0000.0001)  globalFiles = /* write "global" (=not per tile) files */
(PID.TID 0000.0001)                   F
(PID.TID 0000.0001)     ;
(PID.TID 0000.0001)  useSingleCpuIO = /* only master MPI process does I/O */
(PID.TID 0000.0001)                   F
(PID.TID 0000.0001)     ;
(PID.TID 0000.0001) /* debLev[*]  : level of debug & auxiliary message printing */
(PID.TID 0000.0001) debLevZero =  0 ; /* level of disabled aux. msg printing */
(PID.TID 0000.0001)    debLevA =  1 ; /* level of minimum  aux. msg printing */
(PID.TID 0000.0001)    debLevB =  2 ; /* level of low aux. print (report read-file opening)*/
(PID.TID 0000.0001)    debLevC =  3 ; /* level of moderate debug prt (most pkgs debug msg) */
(PID.TID 0000.0001)    debLevD =  4 ; /* level of enhanced debug prt (add DEBUG_STATS prt) */
(PID.TID 0000.0001)    debLevE =  5 ; /* level of extensive debug printing */
(PID.TID 0000.0001) debugLevel =  /* select debug printing level */
(PID.TID 0000.0001)                       2
(PID.TID 0000.0001)     ;
(PID.TID 0000.0001) //
(PID.TID 0000.0001) // Elliptic solver(s) paramters ( PARM02 in namelist )
(PID.TID 0000.0001) //
(PID.TID 0000.0001) cg2dMaxIters =   /* Upper limit on 2d con. grad iterations  */
(PID.TID 0000.0001)                    1000
(PID.TID 0000.0001)     ;
(PID.TID 0000.0001) cg2dChkResFreq =   /* 2d con. grad convergence test frequency */
(PID.TID 0000.0001)                       1
(PID.TID 0000.0001)     ;
(PID.TID 0000.0001) cg2dTargetResidual =   /* 2d con. grad target residual  */
(PID.TID 0000.0001)                 1.000000000000000E-13
(PID.TID 0000.0001)     ;
(PID.TID 0000.0001) cg2dTargetResWunit =   /* CG2d target residual [W units] */
(PID.TID 0000.0001)                -1.000000000000000E+00
(PID.TID 0000.0001)     ;
(PID.TID 0000.0001) cg2dPreCondFreq =   /* Freq. for updating cg2d preconditioner */
(PID.TID 0000.0001)                       1
(PID.TID 0000.0001)     ;
(PID.TID 0000.0001) useSRCGSolver =  /* use single reduction CG solver(s) */
(PID.TID 0000.0001)                   F
(PID.TID 0000.0001)     ;
(PID.TID 0000.0001) printResidualFreq = /* Freq. for printing CG residual */
(PID.TID 0000.0001)                       0
(PID.TID 0000.0001)     ;
(PID.TID 0000.0001) //
(PID.TID 0000.0001) // Time stepping paramters ( PARM03 in namelist )
(PID.TID 0000.0001) //
(PID.TID 0000.0001) deltaTmom =   /* Momentum equation timestep ( s ) */
(PID.TID 0000.0001)                 9.000000000000000E+02
(PID.TID 0000.0001)     ;
(PID.TID 0000.0001) deltaTfreesurf = /* FreeSurface equation timestep ( s ) */
(PID.TID 0000.0001)                 9.000000000000000E+02
(PID.TID 0000.0001)     ;
(PID.TID 0000.0001) dTtracerLev =  /* Tracer equation timestep ( s ) */
(PID.TID 0000.0001)    15 @  4.320000000000000E+04              /* K =  1: 15 */
(PID.TID 0000.0001)     ;
(PID.TID 0000.0001) deltaTClock  =   /* Model clock timestep ( s ) */
(PID.TID 0000.0001)                 4.320000000000000E+04
(PID.TID 0000.0001)     ;
(PID.TID 0000.0001) cAdjFreq =   /* Convective adjustment interval ( s ) */
(PID.TID 0000.0001)                 0.000000000000000E+00
(PID.TID 0000.0001)     ;
(PID.TID 0000.0001) momForcingOutAB = /* =1: take Momentum Forcing out of Adams-Bash. stepping */
(PID.TID 0000.0001)                       0
(PID.TID 0000.0001)     ;
(PID.TID 0000.0001) tracForcingOutAB = /* =1: take T,S,pTr Forcing out of Adams-Bash. stepping */
(PID.TID 0000.0001)                       0
(PID.TID 0000.0001)     ;
(PID.TID 0000.0001) momDissip_In_AB = /* put Dissipation Tendency in Adams-Bash. stepping */
(PID.TID 0000.0001)                   T
(PID.TID 0000.0001)     ;
(PID.TID 0000.0001) doAB_onGtGs = /* apply AB on Tendencies (rather than on T,S)*/
(PID.TID 0000.0001)                   T
(PID.TID 0000.0001)     ;
(PID.TID 0000.0001) abEps =   /* Adams-Bashforth-2 stabilizing weight */
(PID.TID 0000.0001)                 1.000000000000000E-01
(PID.TID 0000.0001)     ;
(PID.TID 0000.0001) tauCD =   /* CD coupling time-scale ( s ) */
(PID.TID 0000.0001)                 3.214280000000000E+05
(PID.TID 0000.0001)     ;
(PID.TID 0000.0001) rCD =   /* Normalised CD coupling parameter */
(PID.TID 0000.0001)                 9.971999950222133E-01
(PID.TID 0000.0001)     ;
(PID.TID 0000.0001) epsAB_CD = /* AB-2 stabilizing weight for CD-scheme*/
(PID.TID 0000.0001)                 1.000000000000000E-01
(PID.TID 0000.0001)     ;
(PID.TID 0000.0001) pickupStrictlyMatch= /* stop if pickup do not strictly match */
(PID.TID 0000.0001)                   F
(PID.TID 0000.0001)     ;
(PID.TID 0000.0001) nIter0   =   /* Run starting timestep number */
(PID.TID 0000.0001)                 5644800
(PID.TID 0000.0001)     ;
(PID.TID 0000.0001) nTimeSteps = /* Number of timesteps */
(PID.TID 0000.0001)                       4
(PID.TID 0000.0001)     ;
(PID.TID 0000.0001) nEndIter =   /* Run ending timestep number */
(PID.TID 0000.0001)                 5644804
(PID.TID 0000.0001)     ;
(PID.TID 0000.0001) baseTime =   /* Model base time ( s ) */
(PID.TID 0000.0001)                 0.000000000000000E+00
(PID.TID 0000.0001)     ;
(PID.TID 0000.0001) startTime =  /* Run start time ( s ) */
(PID.TID 0000.0001)                 2.438553600000000E+11
(PID.TID 0000.0001)     ;
(PID.TID 0000.0001) endTime  =   /* Integration ending time ( s ) */
(PID.TID 0000.0001)                 2.438555328000000E+11
(PID.TID 0000.0001)     ;
(PID.TID 0000.0001) pChkPtFreq = /* Permanent restart/pickup file interval ( s ) */
(PID.TID 0000.0001)                 3.110400000000000E+08
(PID.TID 0000.0001)     ;
(PID.TID 0000.0001) chkPtFreq  = /* Rolling restart/pickup file interval ( s ) */
(PID.TID 0000.0001)                 3.110400000000000E+08
(PID.TID 0000.0001)     ;
(PID.TID 0000.0001) pickup_write_mdsio =   /* Model IO flag. */
(PID.TID 0000.0001)                   T
(PID.TID 0000.0001)     ;
(PID.TID 0000.0001) pickup_read_mdsio =   /* Model IO flag. */
(PID.TID 0000.0001)                   T
(PID.TID 0000.0001)     ;
(PID.TID 0000.0001) pickup_write_mnc =   /* Model IO flag. */
(PID.TID 0000.0001)                   F
(PID.TID 0000.0001)     ;
(PID.TID 0000.0001) pickup_read_mnc =   /* Model IO flag. */
(PID.TID 0000.0001)                   F
(PID.TID 0000.0001)     ;
(PID.TID 0000.0001) pickup_write_immed =   /* Model IO flag. */
(PID.TID 0000.0001)                   F
(PID.TID 0000.0001)     ;
(PID.TID 0000.0001) writePickupAtEnd =   /* Model IO flag. */
(PID.TID 0000.0001)                   T
(PID.TID 0000.0001)     ;
(PID.TID 0000.0001) dumpFreq =   /* Model state write out interval ( s ). */
(PID.TID 0000.0001)                 3.110400000000000E+07
(PID.TID 0000.0001)     ;
(PID.TID 0000.0001) dumpInitAndLast= /* write out Initial & Last iter. model state */
(PID.TID 0000.0001)                   T
(PID.TID 0000.0001)     ;
(PID.TID 0000.0001) snapshot_mdsio =   /* Model IO flag. */
(PID.TID 0000.0001)                   F
(PID.TID 0000.0001)     ;
(PID.TID 0000.0001) snapshot_mnc =   /* Model IO flag. */
(PID.TID 0000.0001)                   T
(PID.TID 0000.0001)     ;
(PID.TID 0000.0001) monitorFreq =   /* Monitor output interval ( s ). */
(PID.TID 0000.0001)                 4.320000000000000E+04
(PID.TID 0000.0001)     ;
(PID.TID 0000.0001) monitorSelect = /* select group of variables to monitor */
(PID.TID 0000.0001)                       3
(PID.TID 0000.0001)     ;
(PID.TID 0000.0001) monitor_stdio =   /* Model IO flag. */
(PID.TID 0000.0001)                   T
(PID.TID 0000.0001)     ;
(PID.TID 0000.0001) monitor_mnc =   /* Model IO flag. */
(PID.TID 0000.0001)                   F
(PID.TID 0000.0001)     ;
(PID.TID 0000.0001) externForcingPeriod =   /* forcing period (s) */
(PID.TID 0000.0001)                 2.592000000000000E+06
(PID.TID 0000.0001)     ;
(PID.TID 0000.0001) externForcingCycle =   /* period of the cyle (s). */
(PID.TID 0000.0001)                 3.110400000000000E+07
(PID.TID 0000.0001)     ;
(PID.TID 0000.0001) tauThetaClimRelax =   /* relaxation time scale (s) */
(PID.TID 0000.0001)                 5.184000000000000E+06
(PID.TID 0000.0001)     ;
(PID.TID 0000.0001) tauSaltClimRelax =   /* relaxation time scale (s) */
(PID.TID 0000.0001)                 7.776000000000000E+06
(PID.TID 0000.0001)     ;
(PID.TID 0000.0001) latBandClimRelax =   /* max. Lat. where relaxation */
(PID.TID 0000.0001)                 1.800000000000000E+02
(PID.TID 0000.0001)     ;
(PID.TID 0000.0001) //
(PID.TID 0000.0001) // Gridding paramters ( PARM04 in namelist )
(PID.TID 0000.0001) //
(PID.TID 0000.0001) usingCartesianGrid = /* Cartesian coordinates flag ( True/False ) */
(PID.TID 0000.0001)                   F
(PID.TID 0000.0001)     ;
(PID.TID 0000.0001) usingCylindricalGrid = /* Cylindrical coordinates flag ( True/False ) */
(PID.TID 0000.0001)                   F
(PID.TID 0000.0001)     ;
(PID.TID 0000.0001) usingSphericalPolarGrid = /* Spherical coordinates flag ( True/False ) */
(PID.TID 0000.0001)                   T
(PID.TID 0000.0001)     ;
(PID.TID 0000.0001) usingCurvilinearGrid = /* Curvilinear coordinates flag ( True/False ) */
(PID.TID 0000.0001)                   F
(PID.TID 0000.0001)     ;
(PID.TID 0000.0001) selectSigmaCoord = /* Hybrid-Sigma Vert. Coordinate option */
(PID.TID 0000.0001)                       0
(PID.TID 0000.0001)     ;
(PID.TID 0000.0001) Ro_SeaLevel = /* r(1) ( units of r ==  m ) */
(PID.TID 0000.0001)                 0.000000000000000E+00
(PID.TID 0000.0001)     ;
(PID.TID 0000.0001) rSigmaBnd = /* r/sigma transition ( units of r ==  m ) */
(PID.TID 0000.0001)                 1.234567000000000E+05
(PID.TID 0000.0001)     ;
(PID.TID 0000.0001) rkSign =   /* index orientation relative to vertical coordinate */
(PID.TID 0000.0001)                -1.000000000000000E+00
(PID.TID 0000.0001)     ;
(PID.TID 0000.0001) gravitySign = /* gravity orientation relative to vertical coordinate */
(PID.TID 0000.0001)                -1.000000000000000E+00
(PID.TID 0000.0001)     ;
(PID.TID 0000.0001) mass2rUnit = /* convert mass per unit area [kg/m2] to r-units [m] */
(PID.TID 0000.0001)                 9.661835748792270E-04
(PID.TID 0000.0001)     ;
(PID.TID 0000.0001) rUnit2mass = /* convert r-units [m] to mass per unit area [kg/m2] */
(PID.TID 0000.0001)                 1.035000000000000E+03
(PID.TID 0000.0001)     ;
(PID.TID 0000.0001) drC =   /* C spacing ( units of r ) */
(PID.TID 0000.0001)                 2.500000000000000E+01,      /* K =  1 */
(PID.TID 0000.0001)                 6.000000000000000E+01,      /* K =  2 */
(PID.TID 0000.0001)                 8.500000000000000E+01,      /* K =  3 */
(PID.TID 0000.0001)                 1.200000000000000E+02,      /* K =  4 */
(PID.TID 0000.0001)                 1.650000000000000E+02,      /* K =  5 */
(PID.TID 0000.0001)                 2.150000000000000E+02,      /* K =  6 */
(PID.TID 0000.0001)                 2.650000000000000E+02,      /* K =  7 */
(PID.TID 0000.0001)                 3.150000000000000E+02,      /* K =  8 */
(PID.TID 0000.0001)                 3.650000000000000E+02,      /* K =  9 */
(PID.TID 0000.0001)                 4.150000000000000E+02,      /* K = 10 */
(PID.TID 0000.0001)                 4.650000000000000E+02,      /* K = 11 */
(PID.TID 0000.0001)                 5.150000000000000E+02,      /* K = 12 */
(PID.TID 0000.0001)                 5.650000000000000E+02,      /* K = 13 */
(PID.TID 0000.0001)                 6.150000000000000E+02,      /* K = 14 */
(PID.TID 0000.0001)                 6.650000000000000E+02       /* K = 15 */
(PID.TID 0000.0001)     ;
(PID.TID 0000.0001) drF =   /* W spacing ( units of r ) */
(PID.TID 0000.0001)                 5.000000000000000E+01,      /* K =  1 */
(PID.TID 0000.0001)                 7.000000000000000E+01,      /* K =  2 */
(PID.TID 0000.0001)                 1.000000000000000E+02,      /* K =  3 */
(PID.TID 0000.0001)                 1.400000000000000E+02,      /* K =  4 */
(PID.TID 0000.0001)                 1.900000000000000E+02,      /* K =  5 */
(PID.TID 0000.0001)                 2.400000000000000E+02,      /* K =  6 */
(PID.TID 0000.0001)                 2.900000000000000E+02,      /* K =  7 */
(PID.TID 0000.0001)                 3.400000000000000E+02,      /* K =  8 */
(PID.TID 0000.0001)                 3.900000000000000E+02,      /* K =  9 */
(PID.TID 0000.0001)                 4.400000000000000E+02,      /* K = 10 */
(PID.TID 0000.0001)                 4.900000000000000E+02,      /* K = 11 */
(PID.TID 0000.0001)                 5.400000000000000E+02,      /* K = 12 */
(PID.TID 0000.0001)                 5.900000000000000E+02,      /* K = 13 */
(PID.TID 0000.0001)                 6.400000000000000E+02,      /* K = 14 */
(PID.TID 0000.0001)                 6.900000000000000E+02       /* K = 15 */
(PID.TID 0000.0001)     ;
(PID.TID 0000.0001) delX = /* U spacing ( m - cartesian, degrees - spherical ) */
(PID.TID 0000.0001)   128 @  2.812500000000000E+00              /* I =  1:128 */
(PID.TID 0000.0001)     ;
(PID.TID 0000.0001) delY = /* V spacing ( m - cartesian, degrees - spherical ) */
(PID.TID 0000.0001)    64 @  2.812500000000000E+00              /* J =  1: 64 */
(PID.TID 0000.0001)     ;
(PID.TID 0000.0001) xgOrigin = /* X-axis origin of West  edge (cartesian: m, lat-lon: deg.) */
(PID.TID 0000.0001)                 0.000000000000000E+00
(PID.TID 0000.0001)     ;
(PID.TID 0000.0001) ygOrigin = /* Y-axis origin of South edge (cartesian: m, lat-lon: deg.) */
(PID.TID 0000.0001)                -9.000000000000000E+01
(PID.TID 0000.0001)     ;
(PID.TID 0000.0001) rSphere =  /* Radius ( ignored - cartesian, m - spherical ) */
(PID.TID 0000.0001)                 6.370000000000000E+06
(PID.TID 0000.0001)     ;
(PID.TID 0000.0001) deepAtmosphere = /* Deep/Shallow Atmosphere flag (True/False) */
(PID.TID 0000.0001)                   F
(PID.TID 0000.0001)     ;
(PID.TID 0000.0001) xC =  /* xC(:,1,:,1) : P-point X coord ( deg. or m if cartesian) */
(PID.TID 0000.0001)                 1.406250000000000E+00,      /* I =  1 */
(PID.TID 0000.0001)                 4.218750000000000E+00,      /* I =  2 */
(PID.TID 0000.0001)                 7.031250000000000E+00,      /* I =  3 */
(PID.TID 0000.0001)      . . .
(PID.TID 0000.0001)                 8.296875000000000E+01,      /* I = 30 */
(PID.TID 0000.0001)                 8.578125000000000E+01,      /* I = 31 */
(PID.TID 0000.0001)                 8.859375000000000E+01,      /* I = 32 */
(PID.TID 0000.0001)                 9.140625000000000E+01,      /* I = 33 */
(PID.TID 0000.0001)                 9.421875000000000E+01,      /* I = 34 */
(PID.TID 0000.0001)                 9.703125000000000E+01,      /* I = 35 */
(PID.TID 0000.0001)      . . .
(PID.TID 0000.0001)                 1.729687500000000E+02,      /* I = 62 */
(PID.TID 0000.0001)                 1.757812500000000E+02,      /* I = 63 */
(PID.TID 0000.0001)                 1.785937500000000E+02,      /* I = 64 */
(PID.TID 0000.0001)                 1.814062500000000E+02,      /* I = 65 */
(PID.TID 0000.0001)                 1.842187500000000E+02,      /* I = 66 */
(PID.TID 0000.0001)                 1.870312500000000E+02,      /* I = 67 */
(PID.TID 0000.0001)      . . .
(PID.TID 0000.0001)                 2.629687500000000E+02,      /* I = 94 */
(PID.TID 0000.0001)                 2.657812500000000E+02,      /* I = 95 */
(PID.TID 0000.0001)                 2.685937500000000E+02,      /* I = 96 */
(PID.TID 0000.0001)                 2.714062500000000E+02,      /* I = 97 */
(PID.TID 0000.0001)                 2.742187500000000E+02,      /* I = 98 */
(PID.TID 0000.0001)                 2.770312500000000E+02,      /* I = 99 */
(PID.TID 0000.0001)      . . .
(PID.TID 0000.0001)                 3.529687500000000E+02,      /* I =126 */
(PID.TID 0000.0001)                 3.557812500000000E+02,      /* I =127 */
(PID.TID 0000.0001)                 3.585937500000000E+02       /* I =128 */
(PID.TID 0000.0001)     ;
(PID.TID 0000.0001) yC =  /* yC(1,:,1,:) : P-point Y coord ( deg. or m if cartesian) */
(PID.TID 0000.0001)                -8.859375000000000E+01,      /* J =  1 */
(PID.TID 0000.0001)                -8.578125000000000E+01,      /* J =  2 */
(PID.TID 0000.0001)                -8.296875000000000E+01,      /* J =  3 */
(PID.TID 0000.0001)                -8.015625000000000E+01,      /* J =  4 */
(PID.TID 0000.0001)                -7.734375000000000E+01,      /* J =  5 */
(PID.TID 0000.0001)                -7.453125000000000E+01,      /* J =  6 */
(PID.TID 0000.0001)                -7.171875000000000E+01,      /* J =  7 */
(PID.TID 0000.0001)                -6.890625000000000E+01,      /* J =  8 */
(PID.TID 0000.0001)                -6.609375000000000E+01,      /* J =  9 */
(PID.TID 0000.0001)                -6.328125000000000E+01,      /* J = 10 */
(PID.TID 0000.0001)                -6.046875000000000E+01,      /* J = 11 */
(PID.TID 0000.0001)                -5.765625000000000E+01,      /* J = 12 */
(PID.TID 0000.0001)                -5.484375000000000E+01,      /* J = 13 */
(PID.TID 0000.0001)                -5.203125000000000E+01,      /* J = 14 */
(PID.TID 0000.0001)                -4.921875000000000E+01,      /* J = 15 */
(PID.TID 0000.0001)                -4.640625000000000E+01,      /* J = 16 */
(PID.TID 0000.0001)                -4.359375000000000E+01,      /* J = 17 */
(PID.TID 0000.0001)                -4.078125000000000E+01,      /* J = 18 */
(PID.TID 0000.0001)                -3.796875000000000E+01,      /* J = 19 */
(PID.TID 0000.0001)                -3.515625000000000E+01,      /* J = 20 */
(PID.TID 0000.0001)                -3.234375000000000E+01,      /* J = 21 */
(PID.TID 0000.0001)                -2.953125000000000E+01,      /* J = 22 */
(PID.TID 0000.0001)                -2.671875000000000E+01,      /* J = 23 */
(PID.TID 0000.0001)                -2.390625000000000E+01,      /* J = 24 */
(PID.TID 0000.0001)                -2.109375000000000E+01,      /* J = 25 */
(PID.TID 0000.0001)                -1.828125000000000E+01,      /* J = 26 */
(PID.TID 0000.0001)                -1.546875000000000E+01,      /* J = 27 */
(PID.TID 0000.0001)                -1.265625000000000E+01,      /* J = 28 */
(PID.TID 0000.0001)                -9.843750000000000E+00,      /* J = 29 */
(PID.TID 0000.0001)                -7.031250000000000E+00,      /* J = 30 */
(PID.TID 0000.0001)                -4.218750000000000E+00,      /* J = 31 */
(PID.TID 0000.0001)                -1.406250000000000E+00,      /* J = 32 */
(PID.TID 0000.0001)                 1.406250000000000E+00,      /* J = 33 */
(PID.TID 0000.0001)                 4.218750000000000E+00,      /* J = 34 */
(PID.TID 0000.0001)                 7.031250000000000E+00,      /* J = 35 */
(PID.TID 0000.0001)                 9.843750000000000E+00,      /* J = 36 */
(PID.TID 0000.0001)                 1.265625000000000E+01,      /* J = 37 */
(PID.TID 0000.0001)                 1.546875000000000E+01,      /* J = 38 */
(PID.TID 0000.0001)                 1.828125000000000E+01,      /* J = 39 */
(PID.TID 0000.0001)                 2.109375000000000E+01,      /* J = 40 */
(PID.TID 0000.0001)                 2.390625000000000E+01,      /* J = 41 */
(PID.TID 0000.0001)                 2.671875000000000E+01,      /* J = 42 */
(PID.TID 0000.0001)                 2.953125000000000E+01,      /* J = 43 */
(PID.TID 0000.0001)                 3.234375000000000E+01,      /* J = 44 */
(PID.TID 0000.0001)                 3.515625000000000E+01,      /* J = 45 */
(PID.TID 0000.0001)                 3.796875000000000E+01,      /* J = 46 */
(PID.TID 0000.0001)                 4.078125000000000E+01,      /* J = 47 */
(PID.TID 0000.0001)                 4.359375000000000E+01,      /* J = 48 */
(PID.TID 0000.0001)                 4.640625000000000E+01,      /* J = 49 */
(PID.TID 0000.0001)                 4.921875000000000E+01,      /* J = 50 */
(PID.TID 0000.0001)                 5.203125000000000E+01,      /* J = 51 */
(PID.TID 0000.0001)                 5.484375000000000E+01,      /* J = 52 */
(PID.TID 0000.0001)                 5.765625000000000E+01,      /* J = 53 */
(PID.TID 0000.0001)                 6.046875000000000E+01,      /* J = 54 */
(PID.TID 0000.0001)                 6.328125000000000E+01,      /* J = 55 */
(PID.TID 0000.0001)                 6.609375000000000E+01,      /* J = 56 */
(PID.TID 0000.0001)                 6.890625000000000E+01,      /* J = 57 */
(PID.TID 0000.0001)                 7.171875000000000E+01,      /* J = 58 */
(PID.TID 0000.0001)                 7.453125000000000E+01,      /* J = 59 */
(PID.TID 0000.0001)                 7.734375000000000E+01,      /* J = 60 */
(PID.TID 0000.0001)                 8.015625000000000E+01,      /* J = 61 */
(PID.TID 0000.0001)                 8.296875000000000E+01,      /* J = 62 */
(PID.TID 0000.0001)                 8.578125000000000E+01,      /* J = 63 */
(PID.TID 0000.0001)                 8.859375000000000E+01       /* J = 64 */
(PID.TID 0000.0001)     ;
(PID.TID 0000.0001) rcoord = /* P-point R coordinate (  units of r ) */
(PID.TID 0000.0001)                -2.500000000000000E+01,      /* K =  1 */
(PID.TID 0000.0001)                -8.500000000000000E+01,      /* K =  2 */
(PID.TID 0000.0001)                -1.700000000000000E+02,      /* K =  3 */
(PID.TID 0000.0001)                -2.900000000000000E+02,      /* K =  4 */
(PID.TID 0000.0001)                -4.550000000000000E+02,      /* K =  5 */
(PID.TID 0000.0001)                -6.700000000000000E+02,      /* K =  6 */
(PID.TID 0000.0001)                -9.350000000000000E+02,      /* K =  7 */
(PID.TID 0000.0001)                -1.250000000000000E+03,      /* K =  8 */
(PID.TID 0000.0001)                -1.615000000000000E+03,      /* K =  9 */
(PID.TID 0000.0001)                -2.030000000000000E+03,      /* K = 10 */
(PID.TID 0000.0001)                -2.495000000000000E+03,      /* K = 11 */
(PID.TID 0000.0001)                -3.010000000000000E+03,      /* K = 12 */
(PID.TID 0000.0001)                -3.575000000000000E+03,      /* K = 13 */
(PID.TID 0000.0001)                -4.190000000000000E+03,      /* K = 14 */
(PID.TID 0000.0001)                -4.855000000000000E+03       /* K = 15 */
(PID.TID 0000.0001)     ;
(PID.TID 0000.0001) rF =   /* W-Interf. R coordinate (  units of r ) */
(PID.TID 0000.0001)                 0.000000000000000E+00,      /* K =  1 */
(PID.TID 0000.0001)                -5.000000000000000E+01,      /* K =  2 */
(PID.TID 0000.0001)                -1.200000000000000E+02,      /* K =  3 */
(PID.TID 0000.0001)                -2.200000000000000E+02,      /* K =  4 */
(PID.TID 0000.0001)                -3.600000000000000E+02,      /* K =  5 */
(PID.TID 0000.0001)                -5.500000000000000E+02,      /* K =  6 */
(PID.TID 0000.0001)                -7.900000000000000E+02,      /* K =  7 */
(PID.TID 0000.0001)                -1.080000000000000E+03,      /* K =  8 */
(PID.TID 0000.0001)                -1.420000000000000E+03,      /* K =  9 */
(PID.TID 0000.0001)                -1.810000000000000E+03,      /* K = 10 */
(PID.TID 0000.0001)                -2.250000000000000E+03,      /* K = 11 */
(PID.TID 0000.0001)                -2.740000000000000E+03,      /* K = 12 */
(PID.TID 0000.0001)                -3.280000000000000E+03,      /* K = 13 */
(PID.TID 0000.0001)                -3.870000000000000E+03,      /* K = 14 */
(PID.TID 0000.0001)                -4.510000000000000E+03,      /* K = 15 */
(PID.TID 0000.0001)                -5.200000000000000E+03       /* K = 16 */
(PID.TID 0000.0001)     ;
(PID.TID 0000.0001) deepFacC = /* deep-model grid factor @ cell-Center (-) */
(PID.TID 0000.0001)    15 @  1.000000000000000E+00              /* K =  1: 15 */
(PID.TID 0000.0001)     ;
(PID.TID 0000.0001) deepFacF = /* deep-model grid factor @ W-Interface (-) */
(PID.TID 0000.0001)    16 @  1.000000000000000E+00              /* K =  1: 16 */
(PID.TID 0000.0001)     ;
(PID.TID 0000.0001) rVel2wUnit = /* convert units: rVel -> wSpeed (=1 if z-coord)*/
(PID.TID 0000.0001)    16 @  1.000000000000000E+00              /* K =  1: 16 */
(PID.TID 0000.0001)     ;
(PID.TID 0000.0001) wUnit2rVel = /* convert units: wSpeed -> rVel (=1 if z-coord)*/
(PID.TID 0000.0001)    16 @  1.000000000000000E+00              /* K =  1: 16 */
(PID.TID 0000.0001)     ;
(PID.TID 0000.0001) dBdrRef = /* Vertical grad. of reference buoyancy [(m/s/r)^2] */
(PID.TID 0000.0001)    15 @  0.000000000000000E+00              /* K =  1: 15 */
(PID.TID 0000.0001)     ;
(PID.TID 0000.0001) rotateGrid = /* use rotated grid ( True/False ) */
(PID.TID 0000.0001)                   F
(PID.TID 0000.0001)     ;
(PID.TID 0000.0001) phiEuler = /* Euler angle, rotation about original z-coordinate [rad] */
(PID.TID 0000.0001)                 0.000000000000000E+00
(PID.TID 0000.0001)     ;
(PID.TID 0000.0001) thetaEuler = /* Euler angle, rotation about new x-coordinate [rad] */
(PID.TID 0000.0001)                 0.000000000000000E+00
(PID.TID 0000.0001)     ;
(PID.TID 0000.0001) psiEuler = /* Euler angle, rotation about new z-coordinate [rad] */
(PID.TID 0000.0001)                 0.000000000000000E+00
(PID.TID 0000.0001)     ;
(PID.TID 0000.0001) dxF =  /* dxF(:,1,:,1) ( units: m ) */
(PID.TID 0000.0001)   128 @  7.673714381622299E+03              /* I =  1:128 */
(PID.TID 0000.0001)     ;
(PID.TID 0000.0001) dxF =  /* dxF(1,:,1,:) ( units: m ) */
(PID.TID 0000.0001)                 7.673714381622299E+03,      /* J =  1 */
(PID.TID 0000.0001)                 2.300265649478360E+04,      /* J =  2 */
(PID.TID 0000.0001)                 3.827618319365421E+04,      /* J =  3 */
(PID.TID 0000.0001)                 5.345749921461356E+04,      /* J =  4 */
(PID.TID 0000.0001)                 6.851003143764105E+04,      /* J =  5 */
(PID.TID 0000.0001)                 8.339751699416524E+04,      /* J =  6 */
(PID.TID 0000.0001)                 9.808409062749070E+04,      /* J =  7 */
(PID.TID 0000.0001)                 1.125343710953429E+05,      /* J =  8 */
(PID.TID 0000.0001)                 1.267135464063795E+05,      /* J =  9 */
(PID.TID 0000.0001)                 1.405874576853274E+05,      /* J = 10 */
(PID.TID 0000.0001)                 1.541226814647045E+05,      /* J = 11 */
(PID.TID 0000.0001)                 1.672866102048804E+05,      /* J = 12 */
(PID.TID 0000.0001)                 1.800475308484964E+05,      /* J = 13 */
(PID.TID 0000.0001)                 1.923747012199971E+05,      /* J = 14 */
(PID.TID 0000.0001)                 2.042384240862251E+05,      /* J = 15 */
(PID.TID 0000.0001)                 2.156101186996563E+05,      /* J = 16 */
(PID.TID 0000.0001)                 2.264623896519241E+05,      /* J = 17 */
(PID.TID 0000.0001)                 2.367690928717577E+05,      /* J = 18 */
(PID.TID 0000.0001)                 2.465053986083400E+05,      /* J = 19 */
(PID.TID 0000.0001)                 2.556478512483520E+05,      /* J = 20 */
(PID.TID 0000.0001)                 2.641744258225996E+05,      /* J = 21 */
(PID.TID 0000.0001)                 2.720645810660936E+05,      /* J = 22 */
(PID.TID 0000.0001)                 2.792993089037565E+05,      /* J = 23 */
(PID.TID 0000.0001)                 2.858611802425402E+05,      /* J = 24 */
(PID.TID 0000.0001)                 2.917343869596373E+05,      /* J = 25 */
(PID.TID 0000.0001)                 2.969047799856344E+05,      /* J = 26 */
(PID.TID 0000.0001)                 3.013599033908587E+05,      /* J = 27 */
(PID.TID 0000.0001)                 3.050890243928043E+05,      /* J = 28 */
(PID.TID 0000.0001)                 3.080831592123453E+05,      /* J = 29 */
(PID.TID 0000.0001)                 3.103350947164461E+05,      /* J = 30 */
(PID.TID 0000.0001)                 3.118394057952309E+05,      /* J = 31 */
(PID.TID 0000.0001)     2 @  3.125924684315491E+05,             /* J = 32: 33 */
(PID.TID 0000.0001)                 3.118394057952309E+05,      /* J = 34 */
(PID.TID 0000.0001)                 3.103350947164461E+05,      /* J = 35 */
(PID.TID 0000.0001)                 3.080831592123453E+05,      /* J = 36 */
(PID.TID 0000.0001)                 3.050890243928043E+05,      /* J = 37 */
(PID.TID 0000.0001)                 3.013599033908587E+05,      /* J = 38 */
(PID.TID 0000.0001)                 2.969047799856344E+05,      /* J = 39 */
(PID.TID 0000.0001)                 2.917343869596373E+05,      /* J = 40 */
(PID.TID 0000.0001)                 2.858611802425402E+05,      /* J = 41 */
(PID.TID 0000.0001)                 2.792993089037565E+05,      /* J = 42 */
(PID.TID 0000.0001)                 2.720645810660936E+05,      /* J = 43 */
(PID.TID 0000.0001)                 2.641744258225996E+05,      /* J = 44 */
(PID.TID 0000.0001)                 2.556478512483520E+05,      /* J = 45 */
(PID.TID 0000.0001)                 2.465053986083400E+05,      /* J = 46 */
(PID.TID 0000.0001)                 2.367690928717577E+05,      /* J = 47 */
(PID.TID 0000.0001)                 2.264623896519241E+05,      /* J = 48 */
(PID.TID 0000.0001)                 2.156101186996563E+05,      /* J = 49 */
(PID.TID 0000.0001)                 2.042384240862251E+05,      /* J = 50 */
(PID.TID 0000.0001)                 1.923747012199971E+05,      /* J = 51 */
(PID.TID 0000.0001)                 1.800475308484964E+05,      /* J = 52 */
(PID.TID 0000.0001)                 1.672866102048804E+05,      /* J = 53 */
(PID.TID 0000.0001)                 1.541226814647045E+05,      /* J = 54 */
(PID.TID 0000.0001)                 1.405874576853274E+05,      /* J = 55 */
(PID.TID 0000.0001)                 1.267135464063795E+05,      /* J = 56 */
(PID.TID 0000.0001)                 1.125343710953429E+05,      /* J = 57 */
(PID.TID 0000.0001)                 9.808409062749070E+04,      /* J = 58 */
(PID.TID 0000.0001)                 8.339751699416524E+04,      /* J = 59 */
(PID.TID 0000.0001)                 6.851003143764105E+04,      /* J = 60 */
(PID.TID 0000.0001)                 5.345749921461356E+04,      /* J = 61 */
(PID.TID 0000.0001)                 3.827618319365421E+04,      /* J = 62 */
(PID.TID 0000.0001)                 2.300265649478360E+04,      /* J = 63 */
(PID.TID 0000.0001)                 7.673714381622299E+03       /* J = 64 */
(PID.TID 0000.0001)     ;
(PID.TID 0000.0001) dyF =  /* dyF(:,1,:,1) ( units: m ) */
(PID.TID 0000.0001)   128 @  3.126866438026091E+05              /* I =  1:128 */
(PID.TID 0000.0001)     ;
(PID.TID 0000.0001) dyF =  /* dyF(1,:,1,:) ( units: m ) */
(PID.TID 0000.0001)    64 @  3.126866438026091E+05              /* J =  1: 64 */
(PID.TID 0000.0001)     ;
(PID.TID 0000.0001) dxG =  /* dxG(:,1,:,1) ( units: m ) */
(PID.TID 0000.0001)   128 @  0.000000000000000E+00              /* I =  1:128 */
(PID.TID 0000.0001)     ;
(PID.TID 0000.0001) dxG =  /* dxG(1,:,1,:) ( units: m ) */
(PID.TID 0000.0001)                 0.000000000000000E+00,      /* J =  1 */
(PID.TID 0000.0001)                 1.534280640463982E+04,      /* J =  2 */
(PID.TID 0000.0001)                 3.064865064477965E+04,      /* J =  3 */
(PID.TID 0000.0001)                 4.588065960101153E+04,      /* J =  4 */
(PID.TID 0000.0001)                 6.100213802959342E+04,      /* J =  5 */
(PID.TID 0000.0001)                 7.597665696450579E+04,      /* J =  6 */
(PID.TID 0000.0001)                 9.076814147802141E+04,      /* J =  7 */
(PID.TID 0000.0001)                 1.053409575883663E+05,      /* J =  8 */
(PID.TID 0000.0001)                 1.196599981051027E+05,      /* J =  9 */
(PID.TID 0000.0001)                 1.336907672054259E+05,      /* J = 10 */
(PID.TID 0000.0001)                 1.473994635376230E+05,      /* J = 11 */
(PID.TID 0000.0001)                 1.607530616514898E+05,      /* J = 12 */
(PID.TID 0000.0001)                 1.737193915595329E+05,      /* J = 13 */
(PID.TID 0000.0001)                 1.862672162372875E+05,      /* J = 14 */
(PID.TID 0000.0001)                 1.983663068760452E+05,      /* J = 15 */
(PID.TID 0000.0001)                 2.099875157067021E+05,      /* J = 16 */
(PID.TID 0000.0001)                 2.211028462192875E+05,      /* J = 17 */
(PID.TID 0000.0001)                 2.316855206090085E+05,      /* J = 18 */
(PID.TID 0000.0001)                 2.417100442863276E+05,      /* J = 19 */
(PID.TID 0000.0001)                 2.511522672956614E+05,      /* J = 20 */
(PID.TID 0000.0001)                 2.599894424947394E+05,      /* J = 21 */
(PID.TID 0000.0001)                 2.682002803544621E+05,      /* J = 22 */
(PID.TID 0000.0001)                 2.757650002472408E+05,      /* J = 23 */
(PID.TID 0000.0001)                 2.826653781002625E+05,      /* J = 24 */
(PID.TID 0000.0001)                 2.888847902988777E+05,      /* J = 25 */
(PID.TID 0000.0001)                 2.944082537343438E+05,      /* J = 26 */
(PID.TID 0000.0001)                 2.992224618994463E+05,      /* J = 27 */
(PID.TID 0000.0001)                 3.033158169450409E+05,      /* J = 28 */
(PID.TID 0000.0001)                 3.066784576202870E+05,      /* J = 29 */
(PID.TID 0000.0001)                 3.093022830292655E+05,      /* J = 30 */
(PID.TID 0000.0001)                 3.111809721467461E+05,      /* J = 31 */
(PID.TID 0000.0001)                 3.123099990460912E+05,      /* J = 32 */
(PID.TID 0000.0001)                 3.126866438026091E+05,      /* J = 33 */
(PID.TID 0000.0001)                 3.123099990460912E+05,      /* J = 34 */
(PID.TID 0000.0001)                 3.111809721467461E+05,      /* J = 35 */
(PID.TID 0000.0001)                 3.093022830292655E+05,      /* J = 36 */
(PID.TID 0000.0001)                 3.066784576202870E+05,      /* J = 37 */
(PID.TID 0000.0001)                 3.033158169450409E+05,      /* J = 38 */
(PID.TID 0000.0001)                 2.992224618994463E+05,      /* J = 39 */
(PID.TID 0000.0001)                 2.944082537343438E+05,      /* J = 40 */
(PID.TID 0000.0001)                 2.888847902988777E+05,      /* J = 41 */
(PID.TID 0000.0001)                 2.826653781002625E+05,      /* J = 42 */
(PID.TID 0000.0001)                 2.757650002472408E+05,      /* J = 43 */
(PID.TID 0000.0001)                 2.682002803544621E+05,      /* J = 44 */
(PID.TID 0000.0001)                 2.599894424947394E+05,      /* J = 45 */
(PID.TID 0000.0001)                 2.511522672956614E+05,      /* J = 46 */
(PID.TID 0000.0001)                 2.417100442863276E+05,      /* J = 47 */
(PID.TID 0000.0001)                 2.316855206090085E+05,      /* J = 48 */
(PID.TID 0000.0001)                 2.211028462192875E+05,      /* J = 49 */
(PID.TID 0000.0001)                 2.099875157067021E+05,      /* J = 50 */
(PID.TID 0000.0001)                 1.983663068760452E+05,      /* J = 51 */
(PID.TID 0000.0001)                 1.862672162372875E+05,      /* J = 52 */
(PID.TID 0000.0001)                 1.737193915595329E+05,      /* J = 53 */
(PID.TID 0000.0001)                 1.607530616514898E+05,      /* J = 54 */
(PID.TID 0000.0001)                 1.473994635376230E+05,      /* J = 55 */
(PID.TID 0000.0001)                 1.336907672054259E+05,      /* J = 56 */
(PID.TID 0000.0001)                 1.196599981051027E+05,      /* J = 57 */
(PID.TID 0000.0001)                 1.053409575883663E+05,      /* J = 58 */
(PID.TID 0000.0001)                 9.076814147802141E+04,      /* J = 59 */
(PID.TID 0000.0001)                 7.597665696450579E+04,      /* J = 60 */
(PID.TID 0000.0001)                 6.100213802959342E+04,      /* J = 61 */
(PID.TID 0000.0001)                 4.588065960101153E+04,      /* J = 62 */
(PID.TID 0000.0001)                 3.064865064477965E+04,      /* J = 63 */
(PID.TID 0000.0001)                 1.534280640463982E+04       /* J = 64 */
(PID.TID 0000.0001)     ;
(PID.TID 0000.0001) dyG =  /* dyG(:,1,:,1) ( units: m ) */
(PID.TID 0000.0001)   128 @  3.126866438026091E+05              /* I =  1:128 */
(PID.TID 0000.0001)     ;
(PID.TID 0000.0001) dyG =  /* dyG(1,:,1,:) ( units: m ) */
(PID.TID 0000.0001)    64 @  3.126866438026091E+05              /* J =  1: 64 */
(PID.TID 0000.0001)     ;
(PID.TID 0000.0001) dxC =  /* dxC(:,1,:,1) ( units: m ) */
(PID.TID 0000.0001)   128 @  7.673714381622299E+03              /* I =  1:128 */
(PID.TID 0000.0001)     ;
(PID.TID 0000.0001) dxC =  /* dxC(1,:,1,:) ( units: m ) */
(PID.TID 0000.0001)                 7.673714381622299E+03,      /* J =  1 */
(PID.TID 0000.0001)                 2.300265649478360E+04,      /* J =  2 */
(PID.TID 0000.0001)                 3.827618319365421E+04,      /* J =  3 */
(PID.TID 0000.0001)                 5.345749921461356E+04,      /* J =  4 */
(PID.TID 0000.0001)                 6.851003143764105E+04,      /* J =  5 */
(PID.TID 0000.0001)                 8.339751699416524E+04,      /* J =  6 */
(PID.TID 0000.0001)                 9.808409062749070E+04,      /* J =  7 */
(PID.TID 0000.0001)                 1.125343710953429E+05,      /* J =  8 */
(PID.TID 0000.0001)                 1.267135464063795E+05,      /* J =  9 */
(PID.TID 0000.0001)                 1.405874576853274E+05,      /* J = 10 */
(PID.TID 0000.0001)                 1.541226814647045E+05,      /* J = 11 */
(PID.TID 0000.0001)                 1.672866102048804E+05,      /* J = 12 */
(PID.TID 0000.0001)                 1.800475308484964E+05,      /* J = 13 */
(PID.TID 0000.0001)                 1.923747012199971E+05,      /* J = 14 */
(PID.TID 0000.0001)                 2.042384240862251E+05,      /* J = 15 */
(PID.TID 0000.0001)                 2.156101186996563E+05,      /* J = 16 */
(PID.TID 0000.0001)                 2.264623896519241E+05,      /* J = 17 */
(PID.TID 0000.0001)                 2.367690928717577E+05,      /* J = 18 */
(PID.TID 0000.0001)                 2.465053986083400E+05,      /* J = 19 */
(PID.TID 0000.0001)                 2.556478512483520E+05,      /* J = 20 */
(PID.TID 0000.0001)                 2.641744258225996E+05,      /* J = 21 */
(PID.TID 0000.0001)                 2.720645810660936E+05,      /* J = 22 */
(PID.TID 0000.0001)                 2.792993089037565E+05,      /* J = 23 */
(PID.TID 0000.0001)                 2.858611802425402E+05,      /* J = 24 */
(PID.TID 0000.0001)                 2.917343869596373E+05,      /* J = 25 */
(PID.TID 0000.0001)                 2.969047799856344E+05,      /* J = 26 */
(PID.TID 0000.0001)                 3.013599033908587E+05,      /* J = 27 */
(PID.TID 0000.0001)                 3.050890243928043E+05,      /* J = 28 */
(PID.TID 0000.0001)                 3.080831592123453E+05,      /* J = 29 */
(PID.TID 0000.0001)                 3.103350947164461E+05,      /* J = 30 */
(PID.TID 0000.0001)                 3.118394057952309E+05,      /* J = 31 */
(PID.TID 0000.0001)     2 @  3.125924684315491E+05,             /* J = 32: 33 */
(PID.TID 0000.0001)                 3.118394057952309E+05,      /* J = 34 */
(PID.TID 0000.0001)                 3.103350947164461E+05,      /* J = 35 */
(PID.TID 0000.0001)                 3.080831592123453E+05,      /* J = 36 */
(PID.TID 0000.0001)                 3.050890243928043E+05,      /* J = 37 */
(PID.TID 0000.0001)                 3.013599033908587E+05,      /* J = 38 */
(PID.TID 0000.0001)                 2.969047799856344E+05,      /* J = 39 */
(PID.TID 0000.0001)                 2.917343869596373E+05,      /* J = 40 */
(PID.TID 0000.0001)                 2.858611802425402E+05,      /* J = 41 */
(PID.TID 0000.0001)                 2.792993089037565E+05,      /* J = 42 */
(PID.TID 0000.0001)                 2.720645810660936E+05,      /* J = 43 */
(PID.TID 0000.0001)                 2.641744258225996E+05,      /* J = 44 */
(PID.TID 0000.0001)                 2.556478512483520E+05,      /* J = 45 */
(PID.TID 0000.0001)                 2.465053986083400E+05,      /* J = 46 */
(PID.TID 0000.0001)                 2.367690928717577E+05,      /* J = 47 */
(PID.TID 0000.0001)                 2.264623896519241E+05,      /* J = 48 */
(PID.TID 0000.0001)                 2.156101186996563E+05,      /* J = 49 */
(PID.TID 0000.0001)                 2.042384240862251E+05,      /* J = 50 */
(PID.TID 0000.0001)                 1.923747012199971E+05,      /* J = 51 */
(PID.TID 0000.0001)                 1.800475308484964E+05,      /* J = 52 */
(PID.TID 0000.0001)                 1.672866102048804E+05,      /* J = 53 */
(PID.TID 0000.0001)                 1.541226814647045E+05,      /* J = 54 */
(PID.TID 0000.0001)                 1.405874576853274E+05,      /* J = 55 */
(PID.TID 0000.0001)                 1.267135464063795E+05,      /* J = 56 */
(PID.TID 0000.0001)                 1.125343710953429E+05,      /* J = 57 */
(PID.TID 0000.0001)                 9.808409062749070E+04,      /* J = 58 */
(PID.TID 0000.0001)                 8.339751699416524E+04,      /* J = 59 */
(PID.TID 0000.0001)                 6.851003143764105E+04,      /* J = 60 */
(PID.TID 0000.0001)                 5.345749921461356E+04,      /* J = 61 */
(PID.TID 0000.0001)                 3.827618319365421E+04,      /* J = 62 */
(PID.TID 0000.0001)                 2.300265649478360E+04,      /* J = 63 */
(PID.TID 0000.0001)                 7.673714381622299E+03       /* J = 64 */
(PID.TID 0000.0001)     ;
(PID.TID 0000.0001) dyC =  /* dyC(:,1,:,1) ( units: m ) */
(PID.TID 0000.0001)   128 @  3.126866438026091E+05              /* I =  1:128 */
(PID.TID 0000.0001)     ;
(PID.TID 0000.0001) dyC =  /* dyC(1,:,1,:) ( units: m ) */
(PID.TID 0000.0001)    64 @  3.126866438026091E+05              /* J =  1: 64 */
(PID.TID 0000.0001)     ;
(PID.TID 0000.0001) dxV =  /* dxV(:,1,:,1) ( units: m ) */
(PID.TID 0000.0001)   128 @  0.000000000000000E+00              /* I =  1:128 */
(PID.TID 0000.0001)     ;
(PID.TID 0000.0001) dxV =  /* dxV(1,:,1,:) ( units: m ) */
(PID.TID 0000.0001)                 0.000000000000000E+00,      /* J =  1 */
(PID.TID 0000.0001)                 1.534280640463982E+04,      /* J =  2 */
(PID.TID 0000.0001)                 3.064865064477965E+04,      /* J =  3 */
(PID.TID 0000.0001)                 4.588065960101153E+04,      /* J =  4 */
(PID.TID 0000.0001)                 6.100213802959342E+04,      /* J =  5 */
(PID.TID 0000.0001)                 7.597665696450579E+04,      /* J =  6 */
(PID.TID 0000.0001)                 9.076814147802141E+04,      /* J =  7 */
(PID.TID 0000.0001)                 1.053409575883663E+05,      /* J =  8 */
(PID.TID 0000.0001)                 1.196599981051027E+05,      /* J =  9 */
(PID.TID 0000.0001)                 1.336907672054259E+05,      /* J = 10 */
(PID.TID 0000.0001)                 1.473994635376230E+05,      /* J = 11 */
(PID.TID 0000.0001)                 1.607530616514898E+05,      /* J = 12 */
(PID.TID 0000.0001)                 1.737193915595329E+05,      /* J = 13 */
(PID.TID 0000.0001)                 1.862672162372875E+05,      /* J = 14 */
(PID.TID 0000.0001)                 1.983663068760452E+05,      /* J = 15 */
(PID.TID 0000.0001)                 2.099875157067021E+05,      /* J = 16 */
(PID.TID 0000.0001)                 2.211028462192875E+05,      /* J = 17 */
(PID.TID 0000.0001)                 2.316855206090085E+05,      /* J = 18 */
(PID.TID 0000.0001)                 2.417100442863276E+05,      /* J = 19 */
(PID.TID 0000.0001)                 2.511522672956614E+05,      /* J = 20 */
(PID.TID 0000.0001)                 2.599894424947394E+05,      /* J = 21 */
(PID.TID 0000.0001)                 2.682002803544621E+05,      /* J = 22 */
(PID.TID 0000.0001)                 2.757650002472408E+05,      /* J = 23 */
(PID.TID 0000.0001)                 2.826653781002625E+05,      /* J = 24 */
(PID.TID 0000.0001)                 2.888847902988777E+05,      /* J = 25 */
(PID.TID 0000.0001)                 2.944082537343438E+05,      /* J = 26 */
(PID.TID 0000.0001)                 2.992224618994463E+05,      /* J = 27 */
(PID.TID 0000.0001)                 3.033158169450409E+05,      /* J = 28 */
(PID.TID 0000.0001)                 3.066784576202870E+05,      /* J = 29 */
(PID.TID 0000.0001)                 3.093022830292655E+05,      /* J = 30 */
(PID.TID 0000.0001)                 3.111809721467461E+05,      /* J = 31 */
(PID.TID 0000.0001)                 3.123099990460912E+05,      /* J = 32 */
(PID.TID 0000.0001)                 3.126866438026091E+05,      /* J = 33 */
(PID.TID 0000.0001)                 3.123099990460912E+05,      /* J = 34 */
(PID.TID 0000.0001)                 3.111809721467461E+05,      /* J = 35 */
(PID.TID 0000.0001)                 3.093022830292655E+05,      /* J = 36 */
(PID.TID 0000.0001)                 3.066784576202870E+05,      /* J = 37 */
(PID.TID 0000.0001)                 3.033158169450409E+05,      /* J = 38 */
(PID.TID 0000.0001)                 2.992224618994463E+05,      /* J = 39 */
(PID.TID 0000.0001)                 2.944082537343438E+05,      /* J = 40 */
(PID.TID 0000.0001)                 2.888847902988777E+05,      /* J = 41 */
(PID.TID 0000.0001)                 2.826653781002625E+05,      /* J = 42 */
(PID.TID 0000.0001)                 2.757650002472408E+05,      /* J = 43 */
(PID.TID 0000.0001)                 2.682002803544621E+05,      /* J = 44 */
(PID.TID 0000.0001)                 2.599894424947394E+05,      /* J = 45 */
(PID.TID 0000.0001)                 2.511522672956614E+05,      /* J = 46 */
(PID.TID 0000.0001)                 2.417100442863276E+05,      /* J = 47 */
(PID.TID 0000.0001)                 2.316855206090085E+05,      /* J = 48 */
(PID.TID 0000.0001)                 2.211028462192875E+05,      /* J = 49 */
(PID.TID 0000.0001)                 2.099875157067021E+05,      /* J = 50 */
(PID.TID 0000.0001)                 1.983663068760452E+05,      /* J = 51 */
(PID.TID 0000.0001)                 1.862672162372875E+05,      /* J = 52 */
(PID.TID 0000.0001)                 1.737193915595329E+05,      /* J = 53 */
(PID.TID 0000.0001)                 1.607530616514898E+05,      /* J = 54 */
(PID.TID 0000.0001)                 1.473994635376230E+05,      /* J = 55 */
(PID.TID 0000.0001)                 1.336907672054259E+05,      /* J = 56 */
(PID.TID 0000.0001)                 1.196599981051027E+05,      /* J = 57 */
(PID.TID 0000.0001)                 1.053409575883663E+05,      /* J = 58 */
(PID.TID 0000.0001)                 9.076814147802141E+04,      /* J = 59 */
(PID.TID 0000.0001)                 7.597665696450579E+04,      /* J = 60 */
(PID.TID 0000.0001)                 6.100213802959342E+04,      /* J = 61 */
(PID.TID 0000.0001)                 4.588065960101153E+04,      /* J = 62 */
(PID.TID 0000.0001)                 3.064865064477965E+04,      /* J = 63 */
(PID.TID 0000.0001)                 1.534280640463982E+04       /* J = 64 */
(PID.TID 0000.0001)     ;
(PID.TID 0000.0001) dyU =  /* dyU(:,1,:,1) ( units: m ) */
(PID.TID 0000.0001)   128 @  3.126866438026091E+05              /* I =  1:128 */
(PID.TID 0000.0001)     ;
(PID.TID 0000.0001) dyU =  /* dyU(1,:,1,:) ( units: m ) */
(PID.TID 0000.0001)    64 @  3.126866438026091E+05              /* J =  1: 64 */
(PID.TID 0000.0001)     ;
(PID.TID 0000.0001) rA  =  /* rA (:,1,:,1) ( units: m^2 ) */
(PID.TID 0000.0001)   128 @  2.399227099019018E+09              /* I =  1:128 */
(PID.TID 0000.0001)     ;
(PID.TID 0000.0001) rA  =  /* rA (1,:,1,:) ( units: m^2 ) */
(PID.TID 0000.0001)                 2.399227099019018E+09,      /* J =  1 */
(PID.TID 0000.0001)                 7.191901348828056E+09,      /* J =  2 */
(PID.TID 0000.0001)                 1.196724967835171E+10,      /* J =  3 */
(PID.TID 0000.0001)                 1.671376785519299E+10,      /* J =  4 */
(PID.TID 0000.0001)                 2.142002110131771E+10,      /* J =  5 */
(PID.TID 0000.0001)                 2.607467164043704E+10,      /* J =  6 */
(PID.TID 0000.0001)                 3.066650601170349E+10,      /* J =  7 */
(PID.TID 0000.0001)                 3.518446208391881E+10,      /* J =  8 */
(PID.TID 0000.0001)                 3.961765570517892E+10,      /* J =  9 */
(PID.TID 0000.0001)                 4.395540692374860E+10,      /* J = 10 */
(PID.TID 0000.0001)                 4.818726571700000E+10,      /* J = 11 */
(PID.TID 0000.0001)                 5.230303716643333E+10,      /* J = 12 */
(PID.TID 0000.0001)                 5.629280601812741E+10,      /* J = 13 */
(PID.TID 0000.0001)                 6.014696056945659E+10,      /* J = 14 */
(PID.TID 0000.0001)                 6.385621582452237E+10,      /* J = 15 */
(PID.TID 0000.0001)                 6.741163586252303E+10,      /* J = 16 */
(PID.TID 0000.0001)                 7.080465536516846E+10,      /* J = 17 */
(PID.TID 0000.0001)                 7.402710025128452E+10,      /* J = 18 */
(PID.TID 0000.0001)                 7.707120736888658E+10,      /* J = 19 */
(PID.TID 0000.0001)                 7.992964319729683E+10,      /* J = 20 */
(PID.TID 0000.0001)                 8.259552151423444E+10,      /* J = 21 */
(PID.TID 0000.0001)                 8.506241998533159E+10,      /* J = 22 */
(PID.TID 0000.0001)                 8.732439563609566E+10,      /* J = 23 */
(PID.TID 0000.0001)                 8.937599916905872E+10,      /* J = 24 */
(PID.TID 0000.0001)                 9.121228809161066E+10,      /* J = 25 */
(PID.TID 0000.0001)                 9.282883862289705E+10,      /* J = 26 */
(PID.TID 0000.0001)                 9.422175635109474E+10,      /* J = 27 */
(PID.TID 0000.0001)                 9.538768561539165E+10,      /* J = 28 */
(PID.TID 0000.0001)                 9.632381759006650E+10,      /* J = 29 */
(PID.TID 0000.0001)                 9.702789705119698E+10,      /* J = 30 */
(PID.TID 0000.0001)                 9.749822780969106E+10,      /* J = 31 */
(PID.TID 0000.0001)     2 @  9.773367679755542E+10,             /* J = 32: 33 */
(PID.TID 0000.0001)                 9.749822780969106E+10,      /* J = 34 */
(PID.TID 0000.0001)                 9.702789705119698E+10,      /* J = 35 */
(PID.TID 0000.0001)                 9.632381759006650E+10,      /* J = 36 */
(PID.TID 0000.0001)                 9.538768561539165E+10,      /* J = 37 */
(PID.TID 0000.0001)                 9.422175635109474E+10,      /* J = 38 */
(PID.TID 0000.0001)                 9.282883862289705E+10,      /* J = 39 */
(PID.TID 0000.0001)                 9.121228809161066E+10,      /* J = 40 */
(PID.TID 0000.0001)                 8.937599916905872E+10,      /* J = 41 */
(PID.TID 0000.0001)                 8.732439563609566E+10,      /* J = 42 */
(PID.TID 0000.0001)                 8.506241998533159E+10,      /* J = 43 */
(PID.TID 0000.0001)                 8.259552151423444E+10,      /* J = 44 */
(PID.TID 0000.0001)                 7.992964319729683E+10,      /* J = 45 */
(PID.TID 0000.0001)                 7.707120736888658E+10,      /* J = 46 */
(PID.TID 0000.0001)                 7.402710025128452E+10,      /* J = 47 */
(PID.TID 0000.0001)                 7.080465536516846E+10,      /* J = 48 */
(PID.TID 0000.0001)                 6.741163586252303E+10,      /* J = 49 */
(PID.TID 0000.0001)                 6.385621582452237E+10,      /* J = 50 */
(PID.TID 0000.0001)                 6.014696056945659E+10,      /* J = 51 */
(PID.TID 0000.0001)                 5.629280601812741E+10,      /* J = 52 */
(PID.TID 0000.0001)                 5.230303716643333E+10,      /* J = 53 */
(PID.TID 0000.0001)                 4.818726571700000E+10,      /* J = 54 */
(PID.TID 0000.0001)                 4.395540692374860E+10,      /* J = 55 */
(PID.TID 0000.0001)                 3.961765570517892E+10,      /* J = 56 */
(PID.TID 0000.0001)                 3.518446208391881E+10,      /* J = 57 */
(PID.TID 0000.0001)                 3.066650601170349E+10,      /* J = 58 */
(PID.TID 0000.0001)                 2.607467164043704E+10,      /* J = 59 */
(PID.TID 0000.0001)                 2.142002110131771E+10,      /* J = 60 */
(PID.TID 0000.0001)                 1.671376785519299E+10,      /* J = 61 */
(PID.TID 0000.0001)                 1.196724967835171E+10,      /* J = 62 */
(PID.TID 0000.0001)                 7.191901348828056E+09,      /* J = 63 */
(PID.TID 0000.0001)                 2.399227099019018E+09       /* J = 64 */
(PID.TID 0000.0001)     ;
(PID.TID 0000.0001) rAw =  /* rAw(:,1,:,1) ( units: m^2 ) */
(PID.TID 0000.0001)   128 @  2.399227099019018E+09              /* I =  1:128 */
(PID.TID 0000.0001)     ;
(PID.TID 0000.0001) rAw =  /* rAw(1,:,1,:) ( units: m^2 ) */
(PID.TID 0000.0001)                 2.399227099019018E+09,      /* J =  1 */
(PID.TID 0000.0001)                 7.191901348828056E+09,      /* J =  2 */
(PID.TID 0000.0001)                 1.196724967835171E+10,      /* J =  3 */
(PID.TID 0000.0001)                 1.671376785519299E+10,      /* J =  4 */
(PID.TID 0000.0001)                 2.142002110131771E+10,      /* J =  5 */
(PID.TID 0000.0001)                 2.607467164043704E+10,      /* J =  6 */
(PID.TID 0000.0001)                 3.066650601170349E+10,      /* J =  7 */
(PID.TID 0000.0001)                 3.518446208391881E+10,      /* J =  8 */
(PID.TID 0000.0001)                 3.961765570517892E+10,      /* J =  9 */
(PID.TID 0000.0001)                 4.395540692374860E+10,      /* J = 10 */
(PID.TID 0000.0001)                 4.818726571700000E+10,      /* J = 11 */
(PID.TID 0000.0001)                 5.230303716643333E+10,      /* J = 12 */
(PID.TID 0000.0001)                 5.629280601812741E+10,      /* J = 13 */
(PID.TID 0000.0001)                 6.014696056945659E+10,      /* J = 14 */
(PID.TID 0000.0001)                 6.385621582452237E+10,      /* J = 15 */
(PID.TID 0000.0001)                 6.741163586252303E+10,      /* J = 16 */
(PID.TID 0000.0001)                 7.080465536516846E+10,      /* J = 17 */
(PID.TID 0000.0001)                 7.402710025128452E+10,      /* J = 18 */
(PID.TID 0000.0001)                 7.707120736888658E+10,      /* J = 19 */
(PID.TID 0000.0001)                 7.992964319729683E+10,      /* J = 20 */
(PID.TID 0000.0001)                 8.259552151423444E+10,      /* J = 21 */
(PID.TID 0000.0001)                 8.506241998533159E+10,      /* J = 22 */
(PID.TID 0000.0001)                 8.732439563609566E+10,      /* J = 23 */
(PID.TID 0000.0001)                 8.937599916905872E+10,      /* J = 24 */
(PID.TID 0000.0001)                 9.121228809161066E+10,      /* J = 25 */
(PID.TID 0000.0001)                 9.282883862289705E+10,      /* J = 26 */
(PID.TID 0000.0001)                 9.422175635109474E+10,      /* J = 27 */
(PID.TID 0000.0001)                 9.538768561539165E+10,      /* J = 28 */
(PID.TID 0000.0001)                 9.632381759006650E+10,      /* J = 29 */
(PID.TID 0000.0001)                 9.702789705119698E+10,      /* J = 30 */
(PID.TID 0000.0001)                 9.749822780969106E+10,      /* J = 31 */
(PID.TID 0000.0001)     2 @  9.773367679755542E+10,             /* J = 32: 33 */
(PID.TID 0000.0001)                 9.749822780969106E+10,      /* J = 34 */
(PID.TID 0000.0001)                 9.702789705119698E+10,      /* J = 35 */
(PID.TID 0000.0001)                 9.632381759006650E+10,      /* J = 36 */
(PID.TID 0000.0001)                 9.538768561539165E+10,      /* J = 37 */
(PID.TID 0000.0001)                 9.422175635109474E+10,      /* J = 38 */
(PID.TID 0000.0001)                 9.282883862289705E+10,      /* J = 39 */
(PID.TID 0000.0001)                 9.121228809161066E+10,      /* J = 40 */
(PID.TID 0000.0001)                 8.937599916905872E+10,      /* J = 41 */
(PID.TID 0000.0001)                 8.732439563609566E+10,      /* J = 42 */
(PID.TID 0000.0001)                 8.506241998533159E+10,      /* J = 43 */
(PID.TID 0000.0001)                 8.259552151423444E+10,      /* J = 44 */
(PID.TID 0000.0001)                 7.992964319729683E+10,      /* J = 45 */
(PID.TID 0000.0001)                 7.707120736888658E+10,      /* J = 46 */
(PID.TID 0000.0001)                 7.402710025128452E+10,      /* J = 47 */
(PID.TID 0000.0001)                 7.080465536516846E+10,      /* J = 48 */
(PID.TID 0000.0001)                 6.741163586252303E+10,      /* J = 49 */
(PID.TID 0000.0001)                 6.385621582452237E+10,      /* J = 50 */
(PID.TID 0000.0001)                 6.014696056945659E+10,      /* J = 51 */
(PID.TID 0000.0001)                 5.629280601812741E+10,      /* J = 52 */
(PID.TID 0000.0001)                 5.230303716643333E+10,      /* J = 53 */
(PID.TID 0000.0001)                 4.818726571700000E+10,      /* J = 54 */
(PID.TID 0000.0001)                 4.395540692374860E+10,      /* J = 55 */
(PID.TID 0000.0001)                 3.961765570517892E+10,      /* J = 56 */
(PID.TID 0000.0001)                 3.518446208391881E+10,      /* J = 57 */
(PID.TID 0000.0001)                 3.066650601170349E+10,      /* J = 58 */
(PID.TID 0000.0001)                 2.607467164043704E+10,      /* J = 59 */
(PID.TID 0000.0001)                 2.142002110131771E+10,      /* J = 60 */
(PID.TID 0000.0001)                 1.671376785519299E+10,      /* J = 61 */
(PID.TID 0000.0001)                 1.196724967835171E+10,      /* J = 62 */
(PID.TID 0000.0001)                 7.191901348828056E+09,      /* J = 63 */
(PID.TID 0000.0001)                 2.399227099019018E+09       /* J = 64 */
(PID.TID 0000.0001)     ;
(PID.TID 0000.0001) rAs =  /* rAs(:,1,:,1) ( units: m^2 ) */
(PID.TID 0000.0001)   128 @  0.000000000000000E+00              /* I =  1:128 */
(PID.TID 0000.0001)     ;
(PID.TID 0000.0001) rAs =  /* rAs(1,:,1,:) ( units: m^2 ) */
(PID.TID 0000.0001)                 0.000000000000000E+00,      /* J =  1 */
(PID.TID 0000.0001)                 4.797008993346594E+09,      /* J =  2 */
(PID.TID 0000.0001)                 9.582461571859739E+09,      /* J =  3 */
(PID.TID 0000.0001)                 1.434482916112175E+10,      /* J =  4 */
(PID.TID 0000.0001)                 1.907263880047594E+10,      /* J =  5 */
(PID.TID 0000.0001)                 2.375450078239423E+10,      /* J =  6 */
(PID.TID 0000.0001)                 2.837913609127881E+10,      /* J =  7 */
(PID.TID 0000.0001)                 3.293540357560110E+10,      /* J =  8 */
(PID.TID 0000.0001)                 3.741232678790870E+10,      /* J =  9 */
(PID.TID 0000.0001)                 4.179912042805190E+10,      /* J = 10 */
(PID.TID 0000.0001)                 4.608521632591324E+10,      /* J = 11 */
(PID.TID 0000.0001)                 5.026028890105701E+10,      /* J = 12 */
(PID.TID 0000.0001)                 5.431428003795675E+10,      /* J = 13 */
(PID.TID 0000.0001)                 5.823742331687641E+10,      /* J = 14 */
(PID.TID 0000.0001)                 6.202026754202965E+10,      /* J = 15 */
(PID.TID 0000.0001)                 6.565369951034003E+10,      /* J = 16 */
(PID.TID 0000.0001)                 6.912896596594559E+10,      /* J = 17 */
(PID.TID 0000.0001)                 7.243769468755632E+10,      /* J = 18 */
(PID.TID 0000.0001)                 7.557191465787256E+10,      /* J = 19 */
(PID.TID 0000.0001)                 7.852407526645966E+10,      /* J = 20 */
(PID.TID 0000.0001)                 8.128706449983365E+10,      /* J = 21 */
(PID.TID 0000.0001)                 8.385422607492096E+10,      /* J = 22 */
(PID.TID 0000.0001)                 8.621937547463148E+10,      /* J = 23 */
(PID.TID 0000.0001)                 8.837681484689812E+10,      /* J = 24 */
(PID.TID 0000.0001)                 9.032134673130376E+10,      /* J = 25 */
(PID.TID 0000.0001)                 9.204828658021815E+10,      /* J = 26 */
(PID.TID 0000.0001)                 9.355347404428317E+10,      /* J = 27 */
(PID.TID 0000.0001)                 9.483328299505896E+10,      /* J = 28 */
(PID.TID 0000.0001)                 9.588463026068500E+10,      /* J = 29 */
(PID.TID 0000.0001)                 9.670498305351135E+10,      /* J = 30 */
(PID.TID 0000.0001)                 9.729236507180571E+10,      /* J = 31 */
(PID.TID 0000.0001)                 9.764536126083739E+10,      /* J = 32 */
(PID.TID 0000.0001)                 9.776312122186816E+10,      /* J = 33 */
(PID.TID 0000.0001)                 9.764536126083739E+10,      /* J = 34 */
(PID.TID 0000.0001)                 9.729236507180571E+10,      /* J = 35 */
(PID.TID 0000.0001)                 9.670498305351135E+10,      /* J = 36 */
(PID.TID 0000.0001)                 9.588463026068500E+10,      /* J = 37 */
(PID.TID 0000.0001)                 9.483328299505896E+10,      /* J = 38 */
(PID.TID 0000.0001)                 9.355347404428317E+10,      /* J = 39 */
(PID.TID 0000.0001)                 9.204828658021815E+10,      /* J = 40 */
(PID.TID 0000.0001)                 9.032134673130376E+10,      /* J = 41 */
(PID.TID 0000.0001)                 8.837681484689812E+10,      /* J = 42 */
(PID.TID 0000.0001)                 8.621937547463148E+10,      /* J = 43 */
(PID.TID 0000.0001)                 8.385422607492096E+10,      /* J = 44 */
(PID.TID 0000.0001)                 8.128706449983365E+10,      /* J = 45 */
(PID.TID 0000.0001)                 7.852407526645966E+10,      /* J = 46 */
(PID.TID 0000.0001)                 7.557191465787256E+10,      /* J = 47 */
(PID.TID 0000.0001)                 7.243769468755632E+10,      /* J = 48 */
(PID.TID 0000.0001)                 6.912896596594559E+10,      /* J = 49 */
(PID.TID 0000.0001)                 6.565369951034003E+10,      /* J = 50 */
(PID.TID 0000.0001)                 6.202026754202965E+10,      /* J = 51 */
(PID.TID 0000.0001)                 5.823742331687641E+10,      /* J = 52 */
(PID.TID 0000.0001)                 5.431428003795675E+10,      /* J = 53 */
(PID.TID 0000.0001)                 5.026028890105701E+10,      /* J = 54 */
(PID.TID 0000.0001)                 4.608521632591324E+10,      /* J = 55 */
(PID.TID 0000.0001)                 4.179912042805190E+10,      /* J = 56 */
(PID.TID 0000.0001)                 3.741232678790870E+10,      /* J = 57 */
(PID.TID 0000.0001)                 3.293540357560110E+10,      /* J = 58 */
(PID.TID 0000.0001)                 2.837913609127881E+10,      /* J = 59 */
(PID.TID 0000.0001)                 2.375450078239423E+10,      /* J = 60 */
(PID.TID 0000.0001)                 1.907263880047594E+10,      /* J = 61 */
(PID.TID 0000.0001)                 1.434482916112175E+10,      /* J = 62 */
(PID.TID 0000.0001)                 9.582461571859739E+09,      /* J = 63 */
(PID.TID 0000.0001)                 4.797008993346594E+09       /* J = 64 */
(PID.TID 0000.0001)     ;
(PID.TID 0000.0001) globalArea = /* Integrated horizontal Area (m^2) */
(PID.TID 0000.0001)                 3.303845519010005E+14
(PID.TID 0000.0001)     ;
(PID.TID 0000.0001) the_run_name = /* Name of this simulation */
(PID.TID 0000.0001)               'Darwin12'
(PID.TID 0000.0001)     ;
(PID.TID 0000.0001) // =======================================================
(PID.TID 0000.0001) // End of Model config. summary
(PID.TID 0000.0001) // =======================================================
(PID.TID 0000.0001) 
(PID.TID 0000.0001) == Packages configuration : Check & print summary ==
(PID.TID 0000.0001) 
(PID.TID 0000.0001) GMREDI_CHECK: #define GMREDI
(PID.TID 0000.0001) GM_AdvForm =     /* if FALSE => use SkewFlux Form */
(PID.TID 0000.0001)                   F
(PID.TID 0000.0001)     ;
(PID.TID 0000.0001) GM_InMomAsStress = /* if TRUE => apply as Eddy Stress */
(PID.TID 0000.0001)                   F
(PID.TID 0000.0001)     ;
(PID.TID 0000.0001) GM_AdvSeparate = /* Calc Bolus & Euler Adv. separately */
(PID.TID 0000.0001)                   F
(PID.TID 0000.0001)     ;
(PID.TID 0000.0001) GM_ExtraDiag =   /* Tensor Extra Diag (line 1&2) non 0 */
(PID.TID 0000.0001)                   F
(PID.TID 0000.0001)     ;
(PID.TID 0000.0001) GM_isopycK =    /* Background Isopyc. Diffusivity [m^2/s] */
(PID.TID 0000.0001)                 1.000000000000000E+03
(PID.TID 0000.0001)     ;
(PID.TID 0000.0001) GM_skewflx*K =  /* Background GM_SkewFlx Diffusivity [m^2/s] */
(PID.TID 0000.0001)                 1.000000000000000E+03
(PID.TID 0000.0001)     ;
(PID.TID 0000.0001) GM_advec*K =    /* Backg. GM-Advec(=Bolus) Diffusivity [m^2/s]*/
(PID.TID 0000.0001)                 0.000000000000000E+00
(PID.TID 0000.0001)     ;
(PID.TID 0000.0001) GM_Kmin_horiz = /* Minimum Horizontal Diffusivity [m^2/s] */
(PID.TID 0000.0001)                 5.000000000000000E+01
(PID.TID 0000.0001)     ;
(PID.TID 0000.0001) GM_Visbeck_alpha = /* Visbeck alpha coeff. [-] */
(PID.TID 0000.0001)                 0.000000000000000E+00
(PID.TID 0000.0001)     ;
(PID.TID 0000.0001) GM_Small_Number =  /* epsilon used in slope calc */
(PID.TID 0000.0001)                 9.999999999999999E-21
(PID.TID 0000.0001)     ;
(PID.TID 0000.0001) GM_slopeSqCutoff = /* Slope^2 cut-off value */
(PID.TID 0000.0001)                 1.000000000000000E+08
(PID.TID 0000.0001)     ;
(PID.TID 0000.0001) GM_taper_scheme =  /* Type of Tapering/Clipping scheme */
(PID.TID 0000.0001)               'dm95                                    '
(PID.TID 0000.0001)     ;
(PID.TID 0000.0001) GM_maxSlope =  /* Maximum Slope (Tapering/Clipping) */
(PID.TID 0000.0001)                 1.000000000000000E-02
(PID.TID 0000.0001)     ;
(PID.TID 0000.0001) GM_facTrL2dz = /* Minimum Trans.Layer Thick. (factor of dz) */
(PID.TID 0000.0001)                 1.000000000000000E+00
(PID.TID 0000.0001)     ;
(PID.TID 0000.0001) GM_facTrL2ML = /* Max.Trans.Layer Thick. (factor of MxL Depth)*/
(PID.TID 0000.0001)                 5.000000000000000E+00
(PID.TID 0000.0001)     ;
(PID.TID 0000.0001) GM_maxTransLay = /* Maximum Transition Layer Thickness [m] */
(PID.TID 0000.0001)                 5.000000000000000E+02
(PID.TID 0000.0001)     ;
(PID.TID 0000.0001) GM_UseBVP = /* if TRUE => use bvp a la Ferrari et al. (2010) */
(PID.TID 0000.0001)                   F
(PID.TID 0000.0001)     ;
(PID.TID 0000.0001) GM_BVP_ModeNumber = /* Vertical mode number for BVP wave speed */
(PID.TID 0000.0001)                       1
(PID.TID 0000.0001)     ;
(PID.TID 0000.0001) GM_BVP_cMin = /* Minimum wave speed for BVP [m/s] */
(PID.TID 0000.0001)                 1.000000000000000E-01
(PID.TID 0000.0001)     ;
(PID.TID 0000.0001) GM_useSubMeso = /* if TRUE => use Sub-Meso param. (B.Fox-Kemper) */
(PID.TID 0000.0001)                   F
(PID.TID 0000.0001)     ;
(PID.TID 0000.0001) subMeso_Ceff = /* efficiency coeff. of Mixed-Layer Eddies [-] */
(PID.TID 0000.0001)                 7.000000000000001E-02
(PID.TID 0000.0001)     ;
(PID.TID 0000.0001) subMeso_invTau = /* inverse of Sub-Meso mixing time-scale [/s] */
(PID.TID 0000.0001)                 2.000000000000000E-06
(PID.TID 0000.0001)     ;
(PID.TID 0000.0001) subMeso_LfMin = /* minimum length-scale "Lf" [m] */
(PID.TID 0000.0001)                 1.000000000000000E+03
(PID.TID 0000.0001)     ;
(PID.TID 0000.0001) subMeso_Lmax = /* maximum grid-scale length [m] */
(PID.TID 0000.0001)                 1.100000000000000E+05
(PID.TID 0000.0001)     ;
(PID.TID 0000.0001) GCHEM_CHECK: #define ALLOW_GCHEM
(PID.TID 0000.0001) MONOD_CHECK: #define ALLOW_MONOD
(PID.TID 0000.0001) MONOD_CHECK: iPtr darwin   PTRACERS_names
(PID.TID 0000.0001) MONOD_CHECK:    1 PO4      PO4
(PID.TID 0000.0001) MONOD_CHECK:    2 NO3      NO3
(PID.TID 0000.0001) MONOD_CHECK:    3 FeT      FeT
(PID.TID 0000.0001) MONOD_CHECK:    4 Si       SiO2
(PID.TID 0000.0001) MONOD_CHECK:    5 DOP      DOP
(PID.TID 0000.0001) MONOD_CHECK:    6 DON      DON
(PID.TID 0000.0001) MONOD_CHECK:    7 DOFe     DOFe
(PID.TID 0000.0001) MONOD_CHECK:    8 ZooP (1) ZOO1P
(PID.TID 0000.0001) MONOD_CHECK:    9 ZooN (1) ZOO1N
(PID.TID 0000.0001) MONOD_CHECK:   10 ZooFe(1) ZOO1Fe
(PID.TID 0000.0001) MONOD_CHECK:   11 ZooSi(1) ZOO1Si
(PID.TID 0000.0001) MONOD_CHECK:   12 ZooP (2) ZOO2P
(PID.TID 0000.0001) MONOD_CHECK:   13 ZooN (2) ZOO2N
(PID.TID 0000.0001) MONOD_CHECK:   14 ZooFe(2) ZOO2Fe
(PID.TID 0000.0001) MONOD_CHECK:   15 ZooSi(2) ZOO2Si
(PID.TID 0000.0001) MONOD_CHECK:   16 POP      POP
(PID.TID 0000.0001) MONOD_CHECK:   17 PON      PON
(PID.TID 0000.0001) MONOD_CHECK:   18 POFe     POFe
(PID.TID 0000.0001) MONOD_CHECK:   19 POSi     POSi
(PID.TID 0000.0001) MONOD_CHECK:   20 NH4      NH4
(PID.TID 0000.0001) MONOD_CHECK:   21 NO2      NO2
(PID.TID 0000.0001) MONOD_CHECK:   22 Phy(1)   Phy01
(PID.TID 0000.0001) MONOD_CHECK:   99 Phy(  78)Phy78
(PID.TID 0000.0001) GAD_CHECK: #define ALLOW_GENERIC_ADVDIFF
(PID.TID 0000.0001) // =======================================================
(PID.TID 0000.0001) // CONFIG_CHECK : Normal End
(PID.TID 0000.0001) // =======================================================
(PID.TID 0000.0001) 
(PID.TID 0000.0001)  MDS_READ_META: opening file: pickup.0005644800.meta
(PID.TID 0000.0001)  nRecords = 123 ; filePrec =  64 ; fileIter =   5644800
(PID.TID 0000.0001)     nDims =   2 , dims:
(PID.TID 0000.0001)    1: 128   1 128
(PID.TID 0000.0001)    2:  64   1  64
(PID.TID 0000.0001)     nFlds =   0 , nFl3D =   0 , fields:
(PID.TID 0000.0001)   nTimRec =   0 , timeList:
(PID.TID 0000.0001)  MDS_READ_FIELD: opening global file: pickup.0005644800.data
(PID.TID 0000.0001)  MDS_READ_FIELD: opening global file: pickup.0005644800.data
(PID.TID 0000.0001)  MDS_READ_FIELD: opening global file: pickup.0005644800.data
(PID.TID 0000.0001)  MDS_READ_FIELD: opening global file: pickup.0005644800.data
(PID.TID 0000.0001)  MDS_READ_FIELD: opening global file: pickup.0005644800.data
(PID.TID 0000.0001)  MDS_READ_FIELD: opening global file: pickup.0005644800.data
(PID.TID 0000.0001)  MDS_READ_FIELD: opening global file: pickup.0005644800.data
(PID.TID 0000.0001)  MDS_READ_FIELD: opening global file: pickup.0005644800.data
(PID.TID 0000.0001)  MDS_READ_FIELD: opening global file: pickup.0005644800.data
(PID.TID 0000.0001) READ_MFLDS_CHECK: - normal end ; reset MFLDS file-name: pickup.0005644800
(PID.TID 0000.0001)  MDS_READ_FIELD: opening global file: ../input/input_ocmip/tren_taux.bin
(PID.TID 0000.0001)  MDS_READ_FIELD: opening global file: ../input/input_ocmip/tren_tauy.bin
(PID.TID 0000.0001)  MDS_READ_FIELD: opening global file: ../input/input_ocmip/shi_qnet.bin
(PID.TID 0000.0001)  MDS_READ_FIELD: opening global file: ../input/input_ocmip/shi_empmr_year.bin
(PID.TID 0000.0001)  MDS_READ_FIELD: opening global file: ../input/input_ocmip/lev_monthly_temp.bin
(PID.TID 0000.0001)  MDS_READ_FIELD: opening global file: ../input/input_ocmip/lev_monthly_salt.bin
(PID.TID 0000.0001)  MDS_READ_FIELD: opening global file: pickup_cd.0005644800.data
(PID.TID 0000.0001)  MDS_READ_FIELD: opening global file: pickup_cd.0005644800.data
(PID.TID 0000.0001)  MDS_READ_FIELD: opening global file: pickup_cd.0005644800.data
(PID.TID 0000.0001)  MDS_READ_FIELD: opening global file: pickup_cd.0005644800.data
(PID.TID 0000.0001)  MDS_READ_FIELD: opening global file: pickup_cd.0005644800.data
(PID.TID 0000.0001)  MDS_READ_FIELD: opening global file: ../input/input_ocmip/po4_uM.bin
(PID.TID 0000.0001)  MDS_READ_FIELD: opening global file: ../input/input_ocmip/no3_uM.bin
(PID.TID 0000.0001)  MDS_READ_FIELD: opening global file: ../input/input_ocmip/fet_run136.bin
(PID.TID 0000.0001)  MDS_READ_FIELD: opening global file: ../input/input_ocmip/sio2_uM.bin
(PID.TID 0000.0001)  MDS_READ_FIELD: opening global file: ../input/input_ocmip/dop_run136.bin
(PID.TID 0000.0001)  MDS_READ_FIELD: opening global file: ../input/input_ocmip/don_init.bin
(PID.TID 0000.0001)  MDS_READ_FIELD: opening global file: ../input/input_ocmip/dof_run136.bin
(PID.TID 0000.0001)  MDS_READ_FIELD: opening global file: ../input/input_ocmip/seawifs_zoo_p2.bin
(PID.TID 0000.0001)  MDS_READ_FIELD: opening global file: ../input/input_ocmip/seawifs_zoo_n2.bin
(PID.TID 0000.0001)  MDS_READ_FIELD: opening global file: ../input/input_ocmip/seawifs_zoo_fe2.bin
(PID.TID 0000.0001)  MDS_READ_FIELD: opening global file: ../input/input_ocmip/seawifs_zoo_si2.bin
(PID.TID 0000.0001)  MDS_READ_FIELD: opening global file: ../input/input_ocmip/seawifs_zoo_p2.bin
(PID.TID 0000.0001)  MDS_READ_FIELD: opening global file: ../input/input_ocmip/seawifs_zoo_n2.bin
(PID.TID 0000.0001)  MDS_READ_FIELD: opening global file: ../input/input_ocmip/seawifs_zoo_fe2.bin
(PID.TID 0000.0001)  MDS_READ_FIELD: opening global file: ../input/input_ocmip/seawifs_zoo_si2.bin
(PID.TID 0000.0001)  MDS_READ_FIELD: opening global file: ../input/input_ocmip/pop_run136.bin
(PID.TID 0000.0001)  MDS_READ_FIELD: opening global file: ../input/input_ocmip/pon_init.bin
(PID.TID 0000.0001)  MDS_READ_FIELD: opening global file: ../input/input_ocmip/pof_run136.bin
(PID.TID 0000.0001)  MDS_READ_FIELD: opening global file: ../input/input_ocmip/pos_run136.bin
(PID.TID 0000.0001)  MDS_READ_FIELD: opening global file: ../input/input_ocmip/nh4_run1_ocmip.bin
(PID.TID 0000.0001)  MDS_READ_FIELD: opening global file: ../input/input_ocmip/no2_run1_ocmip.bin
(PID.TID 0000.0001)  MDS_READ_FIELD: opening global file: ../input/input_ocmip/seawifs_chl_p78.bin
(PID.TID 0000.0001)  MDS_READ_FIELD: opening global file: ../input/input_ocmip/seawifs_chl_p78.bin
(PID.TID 0000.0001)  MDS_READ_FIELD: opening global file: ../input/input_ocmip/seawifs_chl_p78.bin
(PID.TID 0000.0001)  MDS_READ_FIELD: opening global file: ../input/input_ocmip/seawifs_chl_p78.bin
(PID.TID 0000.0001)  MDS_READ_FIELD: opening global file: ../input/input_ocmip/seawifs_chl_p78.bin
(PID.TID 0000.0001)  MDS_READ_FIELD: opening global file: ../input/input_ocmip/seawifs_chl_p78.bin
(PID.TID 0000.0001)  MDS_READ_FIELD: opening global file: ../input/input_ocmip/seawifs_chl_p78.bin
(PID.TID 0000.0001)  MDS_READ_FIELD: opening global file: ../input/input_ocmip/seawifs_chl_p78.bin
(PID.TID 0000.0001)  MDS_READ_FIELD: opening global file: ../input/input_ocmip/seawifs_chl_p78.bin
(PID.TID 0000.0001)  MDS_READ_FIELD: opening global file: ../input/input_ocmip/seawifs_chl_p78.bin
(PID.TID 0000.0001)  MDS_READ_FIELD: opening global file: ../input/input_ocmip/seawifs_chl_p78.bin
(PID.TID 0000.0001)  MDS_READ_FIELD: opening global file: ../input/input_ocmip/seawifs_chl_p78.bin
(PID.TID 0000.0001)  MDS_READ_FIELD: opening global file: ../input/input_ocmip/seawifs_chl_p78.bin
(PID.TID 0000.0001)  MDS_READ_FIELD: opening global file: ../input/input_ocmip/seawifs_chl_p78.bin
(PID.TID 0000.0001)  MDS_READ_FIELD: opening global file: ../input/input_ocmip/seawifs_chl_p78.bin
(PID.TID 0000.0001)  MDS_READ_FIELD: opening global file: ../input/input_ocmip/seawifs_chl_p78.bin
(PID.TID 0000.0001)  MDS_READ_FIELD: opening global file: ../input/input_ocmip/seawifs_chl_p78.bin
(PID.TID 0000.0001)  MDS_READ_FIELD: opening global file: ../input/input_ocmip/seawifs_chl_p78.bin
(PID.TID 0000.0001)  MDS_READ_FIELD: opening global file: ../input/input_ocmip/seawifs_chl_p78.bin
(PID.TID 0000.0001)  MDS_READ_FIELD: opening global file: ../input/input_ocmip/seawifs_chl_p78.bin
(PID.TID 0000.0001)  MDS_READ_FIELD: opening global file: ../input/input_ocmip/seawifs_chl_p78.bin
(PID.TID 0000.0001)  MDS_READ_FIELD: opening global file: ../input/input_ocmip/seawifs_chl_p78.bin
(PID.TID 0000.0001)  MDS_READ_FIELD: opening global file: ../input/input_ocmip/seawifs_chl_p78.bin
(PID.TID 0000.0001)  MDS_READ_FIELD: opening global file: ../input/input_ocmip/seawifs_chl_p78.bin
(PID.TID 0000.0001)  MDS_READ_FIELD: opening global file: ../input/input_ocmip/seawifs_chl_p78.bin
(PID.TID 0000.0001)  MDS_READ_FIELD: opening global file: ../input/input_ocmip/seawifs_chl_p78.bin
(PID.TID 0000.0001)  MDS_READ_FIELD: opening global file: ../input/input_ocmip/seawifs_chl_p78.bin
(PID.TID 0000.0001)  MDS_READ_FIELD: opening global file: ../input/input_ocmip/seawifs_chl_p78.bin
(PID.TID 0000.0001)  MDS_READ_FIELD: opening global file: ../input/input_ocmip/seawifs_chl_p78.bin
(PID.TID 0000.0001)  MDS_READ_FIELD: opening global file: ../input/input_ocmip/seawifs_chl_p78.bin
(PID.TID 0000.0001)  MDS_READ_FIELD: opening global file: ../input/input_ocmip/seawifs_chl_p78.bin
(PID.TID 0000.0001)  MDS_READ_FIELD: opening global file: ../input/input_ocmip/seawifs_chl_p78.bin
(PID.TID 0000.0001)  MDS_READ_FIELD: opening global file: ../input/input_ocmip/seawifs_chl_p78.bin
(PID.TID 0000.0001)  MDS_READ_FIELD: opening global file: ../input/input_ocmip/seawifs_chl_p78.bin
(PID.TID 0000.0001)  MDS_READ_FIELD: opening global file: ../input/input_ocmip/seawifs_chl_p78.bin
(PID.TID 0000.0001)  MDS_READ_FIELD: opening global file: ../input/input_ocmip/seawifs_chl_p78.bin
(PID.TID 0000.0001)  MDS_READ_FIELD: opening global file: ../input/input_ocmip/seawifs_chl_p78.bin
(PID.TID 0000.0001)  MDS_READ_FIELD: opening global file: ../input/input_ocmip/seawifs_chl_p78.bin
(PID.TID 0000.0001)  MDS_READ_FIELD: opening global file: ../input/input_ocmip/seawifs_chl_p78.bin
(PID.TID 0000.0001)  MDS_READ_FIELD: opening global file: ../input/input_ocmip/seawifs_chl_p78.bin
(PID.TID 0000.0001)  MDS_READ_FIELD: opening global file: ../input/input_ocmip/seawifs_chl_p78.bin
(PID.TID 0000.0001)  MDS_READ_FIELD: opening global file: ../input/input_ocmip/seawifs_chl_p78.bin
(PID.TID 0000.0001)  MDS_READ_FIELD: opening global file: ../input/input_ocmip/seawifs_chl_p78.bin
(PID.TID 0000.0001)  MDS_READ_FIELD: opening global file: ../input/input_ocmip/seawifs_chl_p78.bin
(PID.TID 0000.0001)  MDS_READ_FIELD: opening global file: ../input/input_ocmip/seawifs_chl_p78.bin
(PID.TID 0000.0001)  MDS_READ_FIELD: opening global file: ../input/input_ocmip/seawifs_chl_p78.bin
(PID.TID 0000.0001)  MDS_READ_FIELD: opening global file: ../input/input_ocmip/seawifs_chl_p78.bin
(PID.TID 0000.0001)  MDS_READ_FIELD: opening global file: ../input/input_ocmip/seawifs_chl_p78.bin
(PID.TID 0000.0001)  MDS_READ_FIELD: opening global file: ../input/input_ocmip/seawifs_chl_p78.bin
(PID.TID 0000.0001)  MDS_READ_FIELD: opening global file: ../input/input_ocmip/seawifs_chl_p78.bin
(PID.TID 0000.0001)  MDS_READ_FIELD: opening global file: ../input/input_ocmip/seawifs_chl_p78.bin
(PID.TID 0000.0001)  MDS_READ_FIELD: opening global file: ../input/input_ocmip/seawifs_chl_p78.bin
(PID.TID 0000.0001)  MDS_READ_FIELD: opening global file: ../input/input_ocmip/seawifs_chl_p78.bin
(PID.TID 0000.0001)  MDS_READ_FIELD: opening global file: ../input/input_ocmip/seawifs_chl_p78.bin
(PID.TID 0000.0001)  MDS_READ_FIELD: opening global file: ../input/input_ocmip/seawifs_chl_p78.bin
(PID.TID 0000.0001)  MDS_READ_FIELD: opening global file: ../input/input_ocmip/seawifs_chl_p78.bin
(PID.TID 0000.0001)  MDS_READ_FIELD: opening global file: ../input/input_ocmip/seawifs_chl_p78.bin
(PID.TID 0000.0001)  MDS_READ_FIELD: opening global file: ../input/input_ocmip/seawifs_chl_p78.bin
(PID.TID 0000.0001)  MDS_READ_FIELD: opening global file: ../input/input_ocmip/seawifs_chl_p78.bin
(PID.TID 0000.0001)  MDS_READ_FIELD: opening global file: ../input/input_ocmip/seawifs_chl_p78.bin
(PID.TID 0000.0001)  MDS_READ_FIELD: opening global file: ../input/input_ocmip/seawifs_chl_p78.bin
(PID.TID 0000.0001)  MDS_READ_FIELD: opening global file: ../input/input_ocmip/seawifs_chl_p78.bin
(PID.TID 0000.0001)  MDS_READ_FIELD: opening global file: ../input/input_ocmip/seawifs_chl_p78.bin
(PID.TID 0000.0001)  MDS_READ_FIELD: opening global file: ../input/input_ocmip/seawifs_chl_p78.bin
(PID.TID 0000.0001)  MDS_READ_FIELD: opening global file: ../input/input_ocmip/seawifs_chl_p78.bin
(PID.TID 0000.0001)  MDS_READ_FIELD: opening global file: ../input/input_ocmip/seawifs_chl_p78.bin
(PID.TID 0000.0001)  MDS_READ_FIELD: opening global file: ../input/input_ocmip/seawifs_chl_p78.bin
(PID.TID 0000.0001)  MDS_READ_FIELD: opening global file: ../input/input_ocmip/seawifs_chl_p78.bin
(PID.TID 0000.0001)  MDS_READ_FIELD: opening global file: ../input/input_ocmip/seawifs_chl_p78.bin
(PID.TID 0000.0001)  MDS_READ_FIELD: opening global file: ../input/input_ocmip/seawifs_chl_p78.bin
(PID.TID 0000.0001)  MDS_READ_FIELD: opening global file: ../input/input_ocmip/seawifs_chl_p78.bin
(PID.TID 0000.0001)  MDS_READ_FIELD: opening global file: ../input/input_ocmip/seawifs_chl_p78.bin
(PID.TID 0000.0001)  MDS_READ_FIELD: opening global file: ../input/input_ocmip/seawifs_chl_p78.bin
(PID.TID 0000.0001)  MDS_READ_FIELD: opening global file: ../input/input_ocmip/seawifs_chl_p78.bin
(PID.TID 0000.0001)  MDS_READ_FIELD: opening global file: ../input/input_ocmip/seawifs_chl_p78.bin
(PID.TID 0000.0001)  MDS_READ_FIELD: opening global file: ../input/input_ocmip/seawifs_chl_p78.bin
(PID.TID 0000.0001)  MDS_READ_FIELD: opening global file: ../input/input_ocmip/seawifs_chl_p78.bin
(PID.TID 0000.0001)  MDS_READ_FIELD: opening global file: ../input/input_ocmip/seawifs_chl_p78.bin
(PID.TID 0000.0001) QQ random port_rand              801   0.7787879999999999
(PID.TID 0000.0001) // =======================================================
(PID.TID 0000.0001) // Darwin init variables >>> START <<<
(PID.TID 0000.0001) // =======================================================
(PID.TID 0000.0001) QQ random port_rand              801   0.7787879999999999
(PID.TID 0000.0001) generate Phyto: np =    1 FIXED - no DIAZO
(PID.TID 0000.0001) generate Phyto: np =    1 Topt       =  9.853600000000284E-002
(PID.TID 0000.0001) generate Phyto: np =    1 growthdays =  0.400000000000000
(PID.TID 0000.0001) generate Phyto: np =    1 ksatPAR    =  0.201484019535076
(PID.TID 0000.0001) generate Phyto: np =    1 kinhib     =  0.932292144133168
(PID.TID 0000.0001) generate Phyto: np =    2 FIXED - no DIAZO
(PID.TID 0000.0001) generate Phyto: np =    2 Topt       =   12.6058320000000
(PID.TID 0000.0001) generate Phyto: np =    2 growthdays =  0.700000000000000
(PID.TID 0000.0001) generate Phyto: np =    2 ksatPAR    =  4.168232381348377E-003
(PID.TID 0000.0001) generate Phyto: np =    2 kinhib     =   5.88755117316632
(PID.TID 0000.0001) generate Phyto: np =    3 FIXED - no DIAZO
(PID.TID 0000.0001) generate Phyto: np =    3 Topt       =  0.833568000000000
(PID.TID 0000.0001) generate Phyto: np =    3 growthdays =  0.400000000000000
(PID.TID 0000.0001) generate Phyto: np =    3 ksatPAR    =  0.150636407074220
(PID.TID 0000.0001) generate Phyto: np =    3 kinhib     =   1.00245384578051
(PID.TID 0000.0001) generate Phyto: np =    4 FIXED - no DIAZO
(PID.TID 0000.0001) generate Phyto: np =    4 Topt       =   12.3206960000000
(PID.TID 0000.0001) generate Phyto: np =    4 growthdays =  0.700000000000000
(PID.TID 0000.0001) generate Phyto: np =    4 ksatPAR    =  0.258825611082730
(PID.TID 0000.0001) generate Phyto: np =    4 kinhib     =   5.99609881195849
(PID.TID 0000.0001) generate Phyto: np =    5 FIXED - no DIAZO
(PID.TID 0000.0001) generate Phyto: np =    5 Topt       =   24.6737840000000
(PID.TID 0000.0001) generate Phyto: np =    5 growthdays =  0.700000000000000
(PID.TID 0000.0001) generate Phyto: np =    5 ksatPAR    =  0.131263000180599
(PID.TID 0000.0001) generate Phyto: np =    5 kinhib     =   5.91850410397547
(PID.TID 0000.0001) generate Phyto: np =    6 FIXED - no DIAZO
(PID.TID 0000.0001) generate Phyto: np =    6 Topt       =   29.8877360000000
(PID.TID 0000.0001) generate Phyto: np =    6 growthdays =  0.700000000000000
(PID.TID 0000.0001) generate Phyto: np =    6 ksatPAR    =  0.246824605119031
(PID.TID 0000.0001) generate Phyto: np =    6 kinhib     =   6.01180573557760
(PID.TID 0000.0001) generate Phyto: np =    7 FIXED - no DIAZO
(PID.TID 0000.0001) generate Phyto: np =    7 Topt       =   13.2957200000000
(PID.TID 0000.0001) generate Phyto: np =    7 growthdays =  0.400000000000000
(PID.TID 0000.0001) generate Phyto: np =    7 ksatPAR    =  0.131415576222910
(PID.TID 0000.0001) generate Phyto: np =    7 kinhib     =   1.03745962991584
(PID.TID 0000.0001) generate Phyto: np =    8 FIXED - no DIAZO
(PID.TID 0000.0001) generate Phyto: np =    8 Topt       =   11.0828640000000
(PID.TID 0000.0001) generate Phyto: np =    8 growthdays =  0.700000000000000
(PID.TID 0000.0001) generate Phyto: np =    8 ksatPAR    =  0.208153054055370
(PID.TID 0000.0001) generate Phyto: np =    8 kinhib     =   6.00347096250577
(PID.TID 0000.0001) generate Phyto: np =    9 FIXED - no DIAZO
(PID.TID 0000.0001) generate Phyto: np =    9 Topt       =   12.6197040000000
(PID.TID 0000.0001) generate Phyto: np =    9 growthdays =  0.700000000000000
(PID.TID 0000.0001) generate Phyto: np =    9 ksatPAR    =  3.313005319610443E-002
(PID.TID 0000.0001) generate Phyto: np =    9 kinhib     =   6.08968603765121
(PID.TID 0000.0001) generate Phyto: np =   10 FIXED - no DIAZO
(PID.TID 0000.0001) generate Phyto: np =   10 Topt       =   7.39132000000000
(PID.TID 0000.0001) generate Phyto: np =   10 growthdays =  0.400000000000000
(PID.TID 0000.0001) generate Phyto: np =   10 ksatPAR    =  6.810784107179731E-002
(PID.TID 0000.0001) generate Phyto: np =   10 kinhib     =  0.952179447824282
(PID.TID 0000.0001) generate Phyto: np =   11 FIXED - no DIAZO
(PID.TID 0000.0001) generate Phyto: np =   11 Topt       =   20.8272640000000
(PID.TID 0000.0001) generate Phyto: np =   11 growthdays =  0.700000000000000
(PID.TID 0000.0001) generate Phyto: np =   11 ksatPAR    =  0.214415527523359
(PID.TID 0000.0001) generate Phyto: np =   11 kinhib     =   5.95726794845562
(PID.TID 0000.0001) generate Phyto: np =   12 FIXED - no DIAZO
(PID.TID 0000.0001) generate Phyto: np =   12 Topt       =   18.3149920000000
(PID.TID 0000.0001) generate Phyto: np =   12 growthdays =  0.700000000000000
(PID.TID 0000.0001) generate Phyto: np =   12 ksatPAR    =  0.295973519575075
(PID.TID 0000.0001) generate Phyto: np =   12 kinhib     =   6.12474038808241
(PID.TID 0000.0001) generate Phyto: np =   13 FIXED - no DIAZO
(PID.TID 0000.0001) generate Phyto: np =   13 Topt       =   8.34548800000000
(PID.TID 0000.0001) generate Phyto: np =   13 growthdays =  0.700000000000000
(PID.TID 0000.0001) generate Phyto: np =   13 ksatPAR    =  0.128139789991152
(PID.TID 0000.0001) generate Phyto: np =   13 kinhib     =   6.01389460373016
(PID.TID 0000.0001) generate Phyto: np =   14 FIXED - no DIAZO
(PID.TID 0000.0001) generate Phyto: np =   14 Topt       =   26.0195280000000
(PID.TID 0000.0001) generate Phyto: np =   14 growthdays =  0.400000000000000
(PID.TID 0000.0001) generate Phyto: np =   14 ksatPAR    =  6.833319068684907E-002
(PID.TID 0000.0001) generate Phyto: np =   14 kinhib     =  0.987780806346813
(PID.TID 0000.0001) generate Phyto: np =   15 FIXED - no DIAZO
(PID.TID 0000.0001) generate Phyto: np =   15 Topt       =   29.4509760000000
(PID.TID 0000.0001) generate Phyto: np =   15 growthdays =  0.400000000000000
(PID.TID 0000.0001) generate Phyto: np =   15 ksatPAR    =  0.174660635425829
(PID.TID 0000.0001) generate Phyto: np =   15 kinhib     =  0.960146046480369
(PID.TID 0000.0001) generate Phyto: np =   16 FIXED - no DIAZO
(PID.TID 0000.0001) generate Phyto: np =   16 Topt       =   1.55745600000000
(PID.TID 0000.0001) generate Phyto: np =   16 growthdays =  0.700000000000000
(PID.TID 0000.0001) generate Phyto: np =   16 ksatPAR    =  2.285777750854330E-002
(PID.TID 0000.0001) generate Phyto: np =   16 kinhib     =   5.91900214135124
(PID.TID 0000.0001) generate Phyto: np =   17 FIXED - no DIAZO
(PID.TID 0000.0001) generate Phyto: np =   17 Topt       =   26.7808880000000
(PID.TID 0000.0001) generate Phyto: np =   17 growthdays =  0.400000000000000
(PID.TID 0000.0001) generate Phyto: np =   17 ksatPAR    =  0.143236141380388
(PID.TID 0000.0001) generate Phyto: np =   17 kinhib     =   1.04198294383697
(PID.TID 0000.0001) generate Phyto: np =   18 FIXED - no DIAZO
(PID.TID 0000.0001) generate Phyto: np =   18 Topt       =   21.5720400000000
(PID.TID 0000.0001) generate Phyto: np =   18 growthdays =  0.400000000000000
(PID.TID 0000.0001) generate Phyto: np =   18 ksatPAR    =  0.159737865786820
(PID.TID 0000.0001) generate Phyto: np =   18 kinhib     =   1.02445698314086
(PID.TID 0000.0001) generate Phyto: np =   19 FIXED - no DIAZO
(PID.TID 0000.0001) generate Phyto: np =   19 Topt       =   20.3410560000000
(PID.TID 0000.0001) generate Phyto: np =   19 growthdays =  0.700000000000000
(PID.TID 0000.0001) generate Phyto: np =   19 ksatPAR    =  0.124270777782966
(PID.TID 0000.0001) generate Phyto: np =   19 kinhib     =   6.06673530921766
(PID.TID 0000.0001) generate Phyto: np =   20 FIXED - no DIAZO
(PID.TID 0000.0001) generate Phyto: np =   20 Topt       =   5.60016000000000
(PID.TID 0000.0001) generate Phyto: np =   20 growthdays =  0.700000000000000
(PID.TID 0000.0001) generate Phyto: np =   20 ksatPAR    =  0.159319310588984
(PID.TID 0000.0001) generate Phyto: np =   20 kinhib     =   5.83606343527021
(PID.TID 0000.0001) generate Phyto: np =   21 FIXED - no DIAZO
(PID.TID 0000.0001) generate Phyto: np =   21 Topt       =   6.29829600000000
(PID.TID 0000.0001) generate Phyto: np =   21 growthdays =  0.700000000000000
(PID.TID 0000.0001) generate Phyto: np =   21 ksatPAR    =  0.209269078755571
(PID.TID 0000.0001) generate Phyto: np =   21 kinhib     =   5.98492151827440
(PID.TID 0000.0001) generate Phyto: np =   22 FIXED - no DIAZO
(PID.TID 0000.0001) generate Phyto: np =   22 Topt       =   27.8239200000000
(PID.TID 0000.0001) generate Phyto: np =   22 growthdays =  0.400000000000000
(PID.TID 0000.0001) generate Phyto: np =   22 ksatPAR    =  0.172896815691486
(PID.TID 0000.0001) generate Phyto: np =   22 kinhib     =   1.06172652383390
(PID.TID 0000.0001) generate Phyto: np =   23 FIXED - no DIAZO
(PID.TID 0000.0001) generate Phyto: np =   23 Topt       =   12.2790800000000
(PID.TID 0000.0001) generate Phyto: np =   23 growthdays =  0.700000000000000
(PID.TID 0000.0001) generate Phyto: np =   23 ksatPAR    =  3.643698811769938E-002
(PID.TID 0000.0001) generate Phyto: np =   23 kinhib     =   5.91177745192121
(PID.TID 0000.0001) generate Phyto: np =   24 FIXED - no DIAZO
(PID.TID 0000.0001) generate Phyto: np =   24 Topt       =   17.9811600000000
(PID.TID 0000.0001) generate Phyto: np =   24 growthdays =  0.700000000000000
(PID.TID 0000.0001) generate Phyto: np =   24 ksatPAR    =  0.314014257698245
(PID.TID 0000.0001) generate Phyto: np =   24 kinhib     =   5.95054896927192
(PID.TID 0000.0001) generate Phyto: np =   25 FIXED - no DIAZO
(PID.TID 0000.0001) generate Phyto: np =   25 Topt       =   11.0492560000000
(PID.TID 0000.0001) generate Phyto: np =   25 growthdays =  0.700000000000000
(PID.TID 0000.0001) generate Phyto: np =   25 ksatPAR    =  0.197659221529478
(PID.TID 0000.0001) generate Phyto: np =   25 kinhib     =   6.02056712338549
(PID.TID 0000.0001) generate Phyto: np =   26 FIXED - no DIAZO
(PID.TID 0000.0001) generate Phyto: np =   26 Topt       =   24.7084160000000
(PID.TID 0000.0001) generate Phyto: np =   26 growthdays =  0.700000000000000
(PID.TID 0000.0001) generate Phyto: np =   26 ksatPAR    =  4.241153033192135E-002
(PID.TID 0000.0001) generate Phyto: np =   26 kinhib     =   6.06323927166891
(PID.TID 0000.0001) generate Phyto: np =   27 FIXED - no DIAZO
(PID.TID 0000.0001) generate Phyto: np =   27 Topt       =  -1.83187200000000
(PID.TID 0000.0001) generate Phyto: np =   27 growthdays =  0.400000000000000
(PID.TID 0000.0001) generate Phyto: np =   27 ksatPAR    =  0.104957110056264
(PID.TID 0000.0001) generate Phyto: np =   27 kinhib     =   1.12279917536352
(PID.TID 0000.0001) generate Phyto: np =   28 FIXED - no DIAZO
(PID.TID 0000.0001) generate Phyto: np =   28 Topt       =   18.6284960000000
(PID.TID 0000.0001) generate Phyto: np =   28 growthdays =  0.400000000000000
(PID.TID 0000.0001) generate Phyto: np =   28 ksatPAR    =  3.371993663619199E-002
(PID.TID 0000.0001) generate Phyto: np =   28 kinhib     =  0.948167977456030
(PID.TID 0000.0001) generate Phyto: np =   29 FIXED - no DIAZO
(PID.TID 0000.0001) generate Phyto: np =   29 Topt       =  0.611632000000000
(PID.TID 0000.0001) generate Phyto: np =   29 growthdays =  0.700000000000000
(PID.TID 0000.0001) generate Phyto: np =   29 ksatPAR    =  3.561147522701563E-002
(PID.TID 0000.0001) generate Phyto: np =   29 kinhib     =   6.06432909647416
(PID.TID 0000.0001) generate Phyto: np =   30 FIXED - no DIAZO
(PID.TID 0000.0001) generate Phyto: np =   30 Topt       =   13.9864320000000
(PID.TID 0000.0001) generate Phyto: np =   30 growthdays =  0.700000000000000
(PID.TID 0000.0001) generate Phyto: np =   30 ksatPAR    =  0.368186486132999
(PID.TID 0000.0001) generate Phyto: np =   30 kinhib     =   6.05059176271029
(PID.TID 0000.0001) generate Phyto: np =   31 FIXED - no DIAZO
(PID.TID 0000.0001) generate Phyto: np =   31 Topt       =   13.0819840000000
(PID.TID 0000.0001) generate Phyto: np =   31 growthdays =  0.400000000000000
(PID.TID 0000.0001) generate Phyto: np =   31 ksatPAR    =  6.142938299175880E-002
(PID.TID 0000.0001) generate Phyto: np =   31 kinhib     =  0.993011667367717
(PID.TID 0000.0001) generate Phyto: np =   32 FIXED - no DIAZO
(PID.TID 0000.0001) generate Phyto: np =   32 Topt       =   26.9762160000000
(PID.TID 0000.0001) generate Phyto: np =   32 growthdays =  0.700000000000000
(PID.TID 0000.0001) generate Phyto: np =   32 ksatPAR    =  0.461404265757925
(PID.TID 0000.0001) generate Phyto: np =   32 kinhib     =   6.12432556929818
(PID.TID 0000.0001) generate Phyto: np =   33 FIXED - no DIAZO
(PID.TID 0000.0001) generate Phyto: np =   33 Topt       =   9.93297600000000
(PID.TID 0000.0001) generate Phyto: np =   33 growthdays =  0.700000000000000
(PID.TID 0000.0001) generate Phyto: np =   33 ksatPAR    =  0.109295407721092
(PID.TID 0000.0001) generate Phyto: np =   33 kinhib     =   6.04346253686249
(PID.TID 0000.0001) generate Phyto: np =   34 FIXED - no DIAZO
(PID.TID 0000.0001) generate Phyto: np =   34 Topt       =   22.4474560000000
(PID.TID 0000.0001) generate Phyto: np =   34 growthdays =  0.400000000000000
(PID.TID 0000.0001) generate Phyto: np =   34 ksatPAR    =  5.155050363550434E-003
(PID.TID 0000.0001) generate Phyto: np =   34 kinhib     =   1.06809517360339
(PID.TID 0000.0001) generate Phyto: np =   35 FIXED - no DIAZO
(PID.TID 0000.0001) generate Phyto: np =   35 Topt       =   18.1552400000000
(PID.TID 0000.0001) generate Phyto: np =   35 growthdays =  0.400000000000000
(PID.TID 0000.0001) generate Phyto: np =   35 ksatPAR    =  0.138210200180014
(PID.TID 0000.0001) generate Phyto: np =   35 kinhib     =  0.980043320731695
(PID.TID 0000.0001) generate Phyto: np =   36 FIXED - no DIAZO
(PID.TID 0000.0001) generate Phyto: np =   36 Topt       =   22.8654880000000
(PID.TID 0000.0001) generate Phyto: np =   36 growthdays =  0.700000000000000
(PID.TID 0000.0001) generate Phyto: np =   36 ksatPAR    =  4.622076406872895E-002
(PID.TID 0000.0001) generate Phyto: np =   36 kinhib     =   6.01466707071552
(PID.TID 0000.0001) generate Phyto: np =   37 FIXED - no DIAZO
(PID.TID 0000.0001) generate Phyto: np =   37 Topt       =   9.75207200000000
(PID.TID 0000.0001) generate Phyto: np =   37 growthdays =  0.700000000000000
(PID.TID 0000.0001) generate Phyto: np =   37 ksatPAR    =  0.452304489776553
(PID.TID 0000.0001) generate Phyto: np =   37 kinhib     =   6.07498632738349
(PID.TID 0000.0001) generate Phyto: np =   38 FIXED - no DIAZO
(PID.TID 0000.0001) generate Phyto: np =   38 Topt       =   27.9633600000000
(PID.TID 0000.0001) generate Phyto: np =   38 growthdays =  0.400000000000000
(PID.TID 0000.0001) generate Phyto: np =   38 ksatPAR    =  0.109835197384930
(PID.TID 0000.0001) generate Phyto: np =   38 kinhib     =   1.00608255847212
(PID.TID 0000.0001) generate Phyto: np =   39 FIXED - no DIAZO
(PID.TID 0000.0001) generate Phyto: np =   39 Topt       =   13.4947120000000
(PID.TID 0000.0001) generate Phyto: np =   39 growthdays =  0.400000000000000
(PID.TID 0000.0001) generate Phyto: np =   39 ksatPAR    =  0.180519556371628
(PID.TID 0000.0001) generate Phyto: np =   39 kinhib     =  0.891520779009340
(PID.TID 0000.0001) generate Phyto: np =   40 FIXED - no DIAZO
(PID.TID 0000.0001) generate Phyto: np =   40 Topt       =   13.8191200000000
(PID.TID 0000.0001) generate Phyto: np =   40 growthdays =  0.400000000000000
(PID.TID 0000.0001) generate Phyto: np =   40 ksatPAR    =  4.089493902119308E-002
(PID.TID 0000.0001) generate Phyto: np =   40 kinhib     =   1.06286634683676
(PID.TID 0000.0001) generate Phyto: np =   41 FIXED - no DIAZO
(PID.TID 0000.0001) generate Phyto: np =   41 Topt       =   4.77467200000000
(PID.TID 0000.0001) generate Phyto: np =   41 growthdays =  0.400000000000000
(PID.TID 0000.0001) generate Phyto: np =   41 ksatPAR    =  0.246222951015245
(PID.TID 0000.0001) generate Phyto: np =   41 kinhib     =   1.01359555115662
(PID.TID 0000.0001) generate Phyto: np =   42 FIXED - no DIAZO
(PID.TID 0000.0001) generate Phyto: np =   42 Topt       =   24.8874960000000
(PID.TID 0000.0001) generate Phyto: np =   42 growthdays =  0.400000000000000
(PID.TID 0000.0001) generate Phyto: np =   42 ksatPAR    =  0.118682302122828
(PID.TID 0000.0001) generate Phyto: np =   42 kinhib     =  0.958768800947818
(PID.TID 0000.0001) generate Phyto: np =   43 FIXED - no DIAZO
(PID.TID 0000.0001) generate Phyto: np =   43 Topt       =   29.2461680000000
(PID.TID 0000.0001) generate Phyto: np =   43 growthdays =  0.400000000000000
(PID.TID 0000.0001) generate Phyto: np =   43 ksatPAR    =  0.153137847047383
(PID.TID 0000.0001) generate Phyto: np =   43 kinhib     =  0.987818959590297
(PID.TID 0000.0001) generate Phyto: np =   44 FIXED - no DIAZO
(PID.TID 0000.0001) generate Phyto: np =   44 Topt       =   11.2507200000000
(PID.TID 0000.0001) generate Phyto: np =   44 growthdays =  0.400000000000000
(PID.TID 0000.0001) generate Phyto: np =   44 ksatPAR    =  0.119491354397506
(PID.TID 0000.0001) generate Phyto: np =   44 kinhib     =  0.963804678192597
(PID.TID 0000.0001) generate Phyto: np =   45 FIXED - no DIAZO
(PID.TID 0000.0001) generate Phyto: np =   45 Topt       =   9.93172000000000
(PID.TID 0000.0001) generate Phyto: np =   45 growthdays =  0.400000000000000
(PID.TID 0000.0001) generate Phyto: np =   45 ksatPAR    =  0.113130544112300
(PID.TID 0000.0001) generate Phyto: np =   45 kinhib     =  0.985724709387649
(PID.TID 0000.0001) generate Phyto: np =   46 FIXED - no DIAZO
(PID.TID 0000.0001) generate Phyto: np =   46 Topt       =   7.16294400000000
(PID.TID 0000.0001) generate Phyto: np =   46 growthdays =  0.400000000000000
(PID.TID 0000.0001) generate Phyto: np =   46 ksatPAR    =  1.799882498103839E-003
(PID.TID 0000.0001) generate Phyto: np =   46 kinhib     =   1.03591364400637
(PID.TID 0000.0001) generate Phyto: np =   47 FIXED - no DIAZO
(PID.TID 0000.0001) generate Phyto: np =   47 Topt       =   15.5824480000000
(PID.TID 0000.0001) generate Phyto: np =   47 growthdays =  0.700000000000000
(PID.TID 0000.0001) generate Phyto: np =   47 ksatPAR    =  2.960030490962942E-002
(PID.TID 0000.0001) generate Phyto: np =   47 kinhib     =   5.95380282144259
(PID.TID 0000.0001) generate Phyto: np =   48 FIXED - no DIAZO
(PID.TID 0000.0001) generate Phyto: np =   48 Topt       =   16.6842800000000
(PID.TID 0000.0001) generate Phyto: np =   48 growthdays =  0.400000000000000
(PID.TID 0000.0001) generate Phyto: np =   48 ksatPAR    =  0.139620125920015
(PID.TID 0000.0001) generate Phyto: np =   48 kinhib     =   1.06164261096110
(PID.TID 0000.0001) generate Phyto: np =   49 FIXED - no DIAZO
(PID.TID 0000.0001) generate Phyto: np =   49 Topt       =   10.7222800000000
(PID.TID 0000.0001) generate Phyto: np =   49 growthdays =  0.400000000000000
(PID.TID 0000.0001) generate Phyto: np =   49 ksatPAR    =  1.594336740561735E-002
(PID.TID 0000.0001) generate Phyto: np =   49 kinhib     =  0.954765480388607
(PID.TID 0000.0001) generate Phyto: np =   50 FIXED - no DIAZO
(PID.TID 0000.0001) generate Phyto: np =   50 Topt       =   11.7716880000000
(PID.TID 0000.0001) generate Phyto: np =   50 growthdays =  0.400000000000000
(PID.TID 0000.0001) generate Phyto: np =   50 ksatPAR    =  8.524163013067192E-002
(PID.TID 0000.0001) generate Phyto: np =   50 kinhib     =  0.979915823984259
(PID.TID 0000.0001) generate Phyto: np =   51 FIXED - no DIAZO
(PID.TID 0000.0001) generate Phyto: np =   51 Topt       =   5.78206400000000
(PID.TID 0000.0001) generate Phyto: np =   51 growthdays =  0.700000000000000
(PID.TID 0000.0001) generate Phyto: np =   51 ksatPAR    =  0.422633003421818
(PID.TID 0000.0001) generate Phyto: np =   51 kinhib     =   6.03761335574069
(PID.TID 0000.0001) generate Phyto: np =   52 FIXED - no DIAZO
(PID.TID 0000.0001) generate Phyto: np =   52 Topt       =   14.0314640000000
(PID.TID 0000.0001) generate Phyto: np =   52 growthdays =  0.400000000000000
(PID.TID 0000.0001) generate Phyto: np =   52 ksatPAR    =  0.157404148292956
(PID.TID 0000.0001) generate Phyto: np =   52 kinhib     =  0.979945876741234
(PID.TID 0000.0001) generate Phyto: np =   53 FIXED - no DIAZO
(PID.TID 0000.0001) generate Phyto: np =   53 Topt       =   3.80416000000000
(PID.TID 0000.0001) generate Phyto: np =   53 growthdays =  0.400000000000000
(PID.TID 0000.0001) generate Phyto: np =   53 ksatPAR    =  0.124649989557987
(PID.TID 0000.0001) generate Phyto: np =   53 kinhib     =  0.987578082181819
(PID.TID 0000.0001) generate Phyto: np =   54 FIXED - no DIAZO
(PID.TID 0000.0001) generate Phyto: np =   54 Topt       =   21.2564400000000
(PID.TID 0000.0001) generate Phyto: np =   54 growthdays =  0.700000000000000
(PID.TID 0000.0001) generate Phyto: np =   54 ksatPAR    =  0.128972554926024
(PID.TID 0000.0001) generate Phyto: np =   54 kinhib     =   5.91303837446635
(PID.TID 0000.0001) generate Phyto: np =   55 FIXED - no DIAZO
(PID.TID 0000.0001) generate Phyto: np =   55 Topt       =   24.9826720000000
(PID.TID 0000.0001) generate Phyto: np =   55 growthdays =  0.700000000000000
(PID.TID 0000.0001) generate Phyto: np =   55 ksatPAR    =  0.280663830999065
(PID.TID 0000.0001) generate Phyto: np =   55 kinhib     =   6.04684268840731
(PID.TID 0000.0001) generate Phyto: np =   56 FIXED - no DIAZO
(PID.TID 0000.0001) generate Phyto: np =   56 Topt       =   29.3129280000000
(PID.TID 0000.0001) generate Phyto: np =   56 growthdays =  0.700000000000000
(PID.TID 0000.0001) generate Phyto: np =   56 ksatPAR    =  4.689352960957825E-002
(PID.TID 0000.0001) generate Phyto: np =   56 kinhib     =   5.88754146814555
(PID.TID 0000.0001) generate Phyto: np =   57 FIXED - no DIAZO
(PID.TID 0000.0001) generate Phyto: np =   57 Topt       =   19.4339360000000
(PID.TID 0000.0001) generate Phyto: np =   57 growthdays =  0.700000000000000
(PID.TID 0000.0001) generate Phyto: np =   57 ksatPAR    =  0.141696075625289
(PID.TID 0000.0001) generate Phyto: np =   57 kinhib     =   5.92149852261496
(PID.TID 0000.0001) generate Phyto: np =   58 FIXED - no DIAZO
(PID.TID 0000.0001) generate Phyto: np =   58 Topt       =   21.3931280000000
(PID.TID 0000.0001) generate Phyto: np =   58 growthdays =  0.400000000000000
(PID.TID 0000.0001) generate Phyto: np =   58 ksatPAR    =  2.959327652772725E-002
(PID.TID 0000.0001) generate Phyto: np =   58 kinhib     =   1.01171243635831
(PID.TID 0000.0001) generate Phyto: np =   59 FIXED - no DIAZO
(PID.TID 0000.0001) generate Phyto: np =   59 Topt       =   4.51365600000000
(PID.TID 0000.0001) generate Phyto: np =   59 growthdays =  0.400000000000000
(PID.TID 0000.0001) generate Phyto: np =   59 ksatPAR    =  0.206552959971088
(PID.TID 0000.0001) generate Phyto: np =   59 kinhib     =   1.06760628927406
(PID.TID 0000.0001) generate Phyto: np =   60 FIXED - no DIAZO
(PID.TID 0000.0001) generate Phyto: np =   60 Topt       =   11.9909840000000
(PID.TID 0000.0001) generate Phyto: np =   60 growthdays =  0.700000000000000
(PID.TID 0000.0001) generate Phyto: np =   60 ksatPAR    =  0.180074959928797
(PID.TID 0000.0001) generate Phyto: np =   60 kinhib     =   5.80308008153929
(PID.TID 0000.0001) generate Phyto: np =   61 FIXED - no DIAZO
(PID.TID 0000.0001) generate Phyto: np =   61 Topt       =   13.3665680000000
(PID.TID 0000.0001) generate Phyto: np =   61 growthdays =  0.400000000000000
(PID.TID 0000.0001) generate Phyto: np =   61 ksatPAR    =  0.125545814424942
(PID.TID 0000.0001) generate Phyto: np =   61 kinhib     =  0.955086903281512
(PID.TID 0000.0001) generate Phyto: np =   62 FIXED - no DIAZO
(PID.TID 0000.0001) generate Phyto: np =   62 Topt       =   29.2947760000000
(PID.TID 0000.0001) generate Phyto: np =   62 growthdays =  0.400000000000000
(PID.TID 0000.0001) generate Phyto: np =   62 ksatPAR    =  0.137969707089938
(PID.TID 0000.0001) generate Phyto: np =   62 kinhib     =  0.999730652223132
(PID.TID 0000.0001) generate Phyto: np =   63 FIXED - no DIAZO
(PID.TID 0000.0001) generate Phyto: np =   63 Topt       =   18.8915840000000
(PID.TID 0000.0001) generate Phyto: np =   63 growthdays =  0.400000000000000
(PID.TID 0000.0001) generate Phyto: np =   63 ksatPAR    =  0.102495517909435
(PID.TID 0000.0001) generate Phyto: np =   63 kinhib     =   1.08118810032355
(PID.TID 0000.0001) generate Phyto: np =   64 FIXED - no DIAZO
(PID.TID 0000.0001) generate Phyto: np =   64 Topt       =   4.18826400000000
(PID.TID 0000.0001) generate Phyto: np =   64 growthdays =  0.700000000000000
(PID.TID 0000.0001) generate Phyto: np =   64 ksatPAR    =  2.514390802327349E-003
(PID.TID 0000.0001) generate Phyto: np =   64 kinhib     =   6.05674842658588
(PID.TID 0000.0001) generate Phyto: np =   65 FIXED - no DIAZO
(PID.TID 0000.0001) generate Phyto: np =   65 Topt       =   23.8190000000000
(PID.TID 0000.0001) generate Phyto: np =   65 growthdays =  0.700000000000000
(PID.TID 0000.0001) generate Phyto: np =   65 ksatPAR    =  0.361764472092709
(PID.TID 0000.0001) generate Phyto: np =   65 kinhib     =   6.22123017948444
(PID.TID 0000.0001) generate Phyto: np =   66 FIXED - no DIAZO
(PID.TID 0000.0001) generate Phyto: np =   66 Topt       =   6.23997600000000
(PID.TID 0000.0001) generate Phyto: np =   66 growthdays =  0.700000000000000
(PID.TID 0000.0001) generate Phyto: np =   66 ksatPAR    =  0.175926604347062
(PID.TID 0000.0001) generate Phyto: np =   66 kinhib     =   6.05356796030328
(PID.TID 0000.0001) generate Phyto: np =   67 FIXED - no DIAZO
(PID.TID 0000.0001) generate Phyto: np =   67 Topt       =   13.1620240000000
(PID.TID 0000.0001) generate Phyto: np =   67 growthdays =  0.400000000000000
(PID.TID 0000.0001) generate Phyto: np =   67 ksatPAR    =  7.938390433238428E-002
(PID.TID 0000.0001) generate Phyto: np =   67 kinhib     =  0.981190741399867
(PID.TID 0000.0001) generate Phyto: np =   68 FIXED - no DIAZO
(PID.TID 0000.0001) generate Phyto: np =   68 Topt       =   11.4327600000000
(PID.TID 0000.0001) generate Phyto: np =   68 growthdays =  0.700000000000000
(PID.TID 0000.0001) generate Phyto: np =   68 ksatPAR    =  0.252532152702110
(PID.TID 0000.0001) generate Phyto: np =   68 kinhib     =   5.93136901530075
(PID.TID 0000.0001) generate Phyto: np =   69 FIXED - no DIAZO
(PID.TID 0000.0001) generate Phyto: np =   69 Topt       = -0.931799999999999
(PID.TID 0000.0001) generate Phyto: np =   69 growthdays =  0.700000000000000
(PID.TID 0000.0001) generate Phyto: np =   69 ksatPAR    =  0.483156684350219
(PID.TID 0000.0001) generate Phyto: np =   69 kinhib     =   6.09101560065741
(PID.TID 0000.0001) generate Phyto: np =   70 FIXED - no DIAZO
(PID.TID 0000.0001) generate Phyto: np =   70 Topt       =   18.1976720000000
(PID.TID 0000.0001) generate Phyto: np =   70 growthdays =  0.700000000000000
(PID.TID 0000.0001) generate Phyto: np =   70 ksatPAR    =  0.164368812984938
(PID.TID 0000.0001) generate Phyto: np =   70 kinhib     =   5.99462665749560
(PID.TID 0000.0001) generate Phyto: np =   71 FIXED - no DIAZO
(PID.TID 0000.0001) generate Phyto: np =   71 Topt       =   27.7600400000000
(PID.TID 0000.0001) generate Phyto: np =   71 growthdays =  0.700000000000000
(PID.TID 0000.0001) generate Phyto: np =   71 ksatPAR    =  1.898934619056211E-002
(PID.TID 0000.0001) generate Phyto: np =   71 kinhib     =   6.01110059624227
(PID.TID 0000.0001) generate Phyto: np =   72 FIXED - no DIAZO
(PID.TID 0000.0001) generate Phyto: np =   72 Topt       =   18.0876000000000
(PID.TID 0000.0001) generate Phyto: np =   72 growthdays =  0.400000000000000
(PID.TID 0000.0001) generate Phyto: np =   72 ksatPAR    =  0.201331569485515
(PID.TID 0000.0001) generate Phyto: np =   72 kinhib     =  0.942794785716314
(PID.TID 0000.0001) generate Phyto: np =   73 FIXED - no DIAZO
(PID.TID 0000.0001) generate Phyto: np =   73 Topt       =   14.5108320000000
(PID.TID 0000.0001) generate Phyto: np =   73 growthdays =  0.400000000000000
(PID.TID 0000.0001) generate Phyto: np =   73 ksatPAR    =  6.987545043808016E-002
(PID.TID 0000.0001) generate Phyto: np =   73 kinhib     =  0.999127399884779
(PID.TID 0000.0001) generate Phyto: np =   74 FIXED - no DIAZO
(PID.TID 0000.0001) generate Phyto: np =   74 Topt       =  -1.88992800000000
(PID.TID 0000.0001) generate Phyto: np =   74 growthdays =  0.400000000000000
(PID.TID 0000.0001) generate Phyto: np =   74 ksatPAR    =  8.642571452918359E-002
(PID.TID 0000.0001) generate Phyto: np =   74 kinhib     =  0.984724150693042
(PID.TID 0000.0001) generate Phyto: np =   75 FIXED - no DIAZO
(PID.TID 0000.0001) generate Phyto: np =   75 Topt       =   28.6077760000000
(PID.TID 0000.0001) generate Phyto: np =   75 growthdays =  0.700000000000000
(PID.TID 0000.0001) generate Phyto: np =   75 ksatPAR    =  3.152168741777317E-003
(PID.TID 0000.0001) generate Phyto: np =   75 kinhib     =   5.99749157257002
(PID.TID 0000.0001) generate Phyto: np =   76 FIXED - no DIAZO
(PID.TID 0000.0001) generate Phyto: np =   76 Topt       =   18.4810720000000
(PID.TID 0000.0001) generate Phyto: np =   76 growthdays =  0.700000000000000
(PID.TID 0000.0001) generate Phyto: np =   76 ksatPAR    =  0.432706862208300
(PID.TID 0000.0001) generate Phyto: np =   76 kinhib     =   6.08664882346844
(PID.TID 0000.0001) generate Phyto: np =   77 FIXED - no DIAZO
(PID.TID 0000.0001) generate Phyto: np =   77 Topt       =   17.3454320000000
(PID.TID 0000.0001) generate Phyto: np =   77 growthdays =  0.700000000000000
(PID.TID 0000.0001) generate Phyto: np =   77 ksatPAR    =  5.292575723567150E-002
(PID.TID 0000.0001) generate Phyto: np =   77 kinhib     =   5.95379529581454
(PID.TID 0000.0001) generate Phyto: np =   78 FIXED - no DIAZO
(PID.TID 0000.0001) generate Phyto: np =   78 Topt       =   21.3497040000000
(PID.TID 0000.0001) generate Phyto: np =   78 growthdays =  0.700000000000000
(PID.TID 0000.0001) generate Phyto: np =   78 ksatPAR    =  0.209326639181234
(PID.TID 0000.0001) generate Phyto: np =   78 kinhib     =   6.08716767175380
(PID.TID 0000.0001) QQ start timeave
(PID.TID 0000.0001) QQ start timeave
(PID.TID 0000.0001) // =======================================================
(PID.TID 0000.0001) // Darwin init variables >>> END <<<
(PID.TID 0000.0001) // =======================================================
(PID.TID 0000.0001) // =======================================================
(PID.TID 0000.0001) // Model current state
(PID.TID 0000.0001) // =======================================================
(PID.TID 0000.0001) 
(PID.TID 0000.0001) // =======================================================
(PID.TID 0000.0001) // Begin MONITOR dynamic field statistics
(PID.TID 0000.0001) // =======================================================
(PID.TID 0000.0001) %MON time_tsnumber                =               5644800
(PID.TID 0000.0001) %MON time_secondsf                =   2.4385536000000E+11
(PID.TID 0000.0001) %MON dynstat_eta_max              =   9.3755788342258E-01
(PID.TID 0000.0001) %MON dynstat_eta_min              =  -1.7306042755482E+00
(PID.TID 0000.0001) %MON dynstat_eta_mean             =   1.6246257108923E-10
(PID.TID 0000.0001) %MON dynstat_eta_sd               =   6.5178731078585E-01
(PID.TID 0000.0001) %MON dynstat_eta_del2             =   9.2891361698735E-04
(PID.TID 0000.0001) %MON dynstat_uvel_max             =   1.5507010426340E-01
(PID.TID 0000.0001) %MON dynstat_uvel_min             =  -1.8450839420854E-01
(PID.TID 0000.0001) %MON dynstat_uvel_mean            =   2.9502714531934E-03
(PID.TID 0000.0001) %MON dynstat_uvel_sd              =   1.3889038797601E-02
(PID.TID 0000.0001) %MON dynstat_uvel_del2            =   3.8112943275888E-05
(PID.TID 0000.0001) %MON dynstat_vvel_max             =   1.1197724506262E-01
(PID.TID 0000.0001) %MON dynstat_vvel_min             =  -1.5223637120170E-01
(PID.TID 0000.0001) %MON dynstat_vvel_mean            =  -1.9308448637590E-04
(PID.TID 0000.0001) %MON dynstat_vvel_sd              =   6.3587600692689E-03
(PID.TID 0000.0001) %MON dynstat_vvel_del2            =   2.6616594379895E-05
(PID.TID 0000.0001) %MON dynstat_wvel_max             =   4.3080633446448E-05
(PID.TID 0000.0001) %MON dynstat_wvel_min             =  -6.4970200391657E-05
(PID.TID 0000.0001) %MON dynstat_wvel_mean            =  -3.6601022929591E-22
(PID.TID 0000.0001) %MON dynstat_wvel_sd              =   1.9051103185233E-06
(PID.TID 0000.0001) %MON dynstat_wvel_del2            =   1.3074537000182E-08
(PID.TID 0000.0001) %MON dynstat_theta_max            =   2.9951462807692E+01
(PID.TID 0000.0001) %MON dynstat_theta_min            =  -2.1378475686010E+00
(PID.TID 0000.0001) %MON dynstat_theta_mean           =   3.7550907107470E+00
(PID.TID 0000.0001) %MON dynstat_theta_sd             =   5.1497435058860E+00
(PID.TID 0000.0001) %MON dynstat_theta_del2           =   2.2484814302737E-03
(PID.TID 0000.0001) %MON dynstat_salt_max             =   3.7554077754206E+01
(PID.TID 0000.0001) %MON dynstat_salt_min             =   3.1355930984643E+01
(PID.TID 0000.0001) %MON dynstat_salt_mean            =   3.4543282271397E+01
(PID.TID 0000.0001) %MON dynstat_salt_sd              =   3.5868549207265E-01
(PID.TID 0000.0001) %MON dynstat_salt_del2            =   3.8184709121528E-04
(PID.TID 0000.0001) %MON forcing_qnet_max             =   4.4937911987305E+02
(PID.TID 0000.0001) %MON forcing_qnet_min             =  -2.0417861938477E+02
(PID.TID 0000.0001) %MON forcing_qnet_mean            =  -1.7476785758605E+01
(PID.TID 0000.0001) %MON forcing_qnet_sd              =   1.1366008303785E+02
(PID.TID 0000.0001) %MON forcing_qnet_del2            =   2.8634827682351E-01
(PID.TID 0000.0001) %MON forcing_qsw_max              =   0.0000000000000E+00
(PID.TID 0000.0001) %MON forcing_qsw_min              =   0.0000000000000E+00
(PID.TID 0000.0001) %MON forcing_qsw_mean             =   0.0000000000000E+00
(PID.TID 0000.0001) %MON forcing_qsw_sd               =   0.0000000000000E+00
(PID.TID 0000.0001) %MON forcing_qsw_del2             =   0.0000000000000E+00
(PID.TID 0000.0001) %MON forcing_empmr_max            =   6.9206222512719E-05
(PID.TID 0000.0001) %MON forcing_empmr_min            =  -1.5544422772962E-04
(PID.TID 0000.0001) %MON forcing_empmr_mean           =   1.2460352661810E-14
(PID.TID 0000.0001) %MON forcing_empmr_sd             =   2.4700019777611E-05
(PID.TID 0000.0001) %MON forcing_empmr_del2           =   1.1591736879229E-07
(PID.TID 0000.0001) %MON forcing_fu_max               =   2.8468748927116E-01
(PID.TID 0000.0001) %MON forcing_fu_min               =  -1.5522694587708E-01
(PID.TID 0000.0001) %MON forcing_fu_mean              =   1.7556170217892E-02
(PID.TID 0000.0001) %MON forcing_fu_sd                =   9.0000334104050E-02
(PID.TID 0000.0001) %MON forcing_fu_del2              =   2.6696712158132E-04
(PID.TID 0000.0001) %MON forcing_fv_max               =   2.1343359351158E-01
(PID.TID 0000.0001) %MON forcing_fv_min               =  -1.7404061555862E-01
(PID.TID 0000.0001) %MON forcing_fv_mean              =  -5.8961451090369E-03
(PID.TID 0000.0001) %MON forcing_fv_sd                =   4.6452039259649E-02
(PID.TID 0000.0001) %MON forcing_fv_del2              =   1.8991860252817E-04
(PID.TID 0000.0001) %MON advcfl_uvel_max              =   4.0045216386264E-02
(PID.TID 0000.0001) %MON advcfl_vvel_max              =   2.1032594024275E-02
(PID.TID 0000.0001) %MON advcfl_wvel_max              =   1.3150163344719E-02
(PID.TID 0000.0001) %MON advcfl_W_hf_max              =   1.5498406799134E-02
(PID.TID 0000.0001) %MON pe_b_mean                    =   5.8641869340709E-04
(PID.TID 0000.0001) %MON ke_max                       =   1.7893934739357E-02
(PID.TID 0000.0001) %MON ke_mean                      =   1.1152732963385E-04
(PID.TID 0000.0001) %MON ke_vol                       =   1.1739855207380E+18
(PID.TID 0000.0001) %MON vort_r_min                   =  -5.5333382194170E-07
(PID.TID 0000.0001) %MON vort_r_max                   =   6.2092681877332E-07
(PID.TID 0000.0001) %MON vort_a_mean                  =  -2.5798915502265E-05
(PID.TID 0000.0001) %MON vort_a_sd                    =   7.3558772795088E-05
(PID.TID 0000.0001) %MON vort_p_mean                  =  -3.0020960747216E-05
(PID.TID 0000.0001) %MON vort_p_sd                    =   9.8090578536762E-05
(PID.TID 0000.0001) %MON surfExpan_theta_mean         =  -3.2318359898148E-07
(PID.TID 0000.0001) %MON surfExpan_salt_mean          =   2.1976907188860E-08
(PID.TID 0000.0001) // =======================================================
(PID.TID 0000.0001) // End MONITOR dynamic field statistics
(PID.TID 0000.0001) // =======================================================
(PID.TID 0000.0001) // =======================================================
(PID.TID 0000.0001) // Begin MONITOR ptracer field statistics
(PID.TID 0000.0001) // =======================================================
(PID.TID 0000.0001) %MON trcstat_ptracer01_max        =   3.4906260967255E+00
(PID.TID 0000.0001) %MON trcstat_ptracer01_min        =   4.7107778489590E-02
(PID.TID 0000.0001) %MON trcstat_ptracer01_mean       =   2.1106181285446E+00
(PID.TID 0000.0001) %MON trcstat_ptracer01_sd         =   6.4916060620548E-01
(PID.TID 0000.0001) %MON trcstat_ptracer01_del2       =   3.6658808103996E-04
(PID.TID 0000.0001) %MON trcstat_ptracer02_max        =   5.5516395568848E+01
(PID.TID 0000.0001) %MON trcstat_ptracer02_min        =   2.7343749025022E-05
(PID.TID 0000.0001) %MON trcstat_ptracer02_mean       =   3.0319124172610E+01
(PID.TID 0000.0001) %MON trcstat_ptracer02_sd         =   9.3093495048919E+00
(PID.TID 0000.0001) %MON trcstat_ptracer02_del2       =   7.0414134335694E-03
(PID.TID 0000.0001) %MON trcstat_ptracer03_max        =   6.0156327672303E-03
(PID.TID 0000.0001) %MON trcstat_ptracer03_min        =   4.2254514482920E-06
(PID.TID 0000.0001) %MON trcstat_ptracer03_mean       =   3.3385286198008E-04
(PID.TID 0000.0001) %MON trcstat_ptracer03_sd         =   2.5058901193196E-04
(PID.TID 0000.0001) %MON trcstat_ptracer03_del2       =   2.9408062113935E-07
(PID.TID 0000.0001) %MON trcstat_ptracer04_max        =   1.8846359252930E+02
(PID.TID 0000.0001) %MON trcstat_ptracer04_min        =   4.3886455893517E-01
(PID.TID 0000.0001) %MON trcstat_ptracer04_mean       =   8.3739431197758E+01
(PID.TID 0000.0001) %MON trcstat_ptracer04_sd         =   4.9673060416467E+01
(PID.TID 0000.0001) %MON trcstat_ptracer04_del2       =   1.6543685326871E-02
(PID.TID 0000.0001) %MON trcstat_ptracer05_max        =   1.2814268469810E-01
(PID.TID 0000.0001) %MON trcstat_ptracer05_min        =  -1.7141208809335E-04
(PID.TID 0000.0001) %MON trcstat_ptracer05_mean       =   1.0700477050265E-03
(PID.TID 0000.0001) %MON trcstat_ptracer05_sd         =   6.8318927444389E-03
(PID.TID 0000.0001) %MON trcstat_ptracer05_del2       =   1.8569200782472E-05
(PID.TID 0000.0001) %MON trcstat_ptracer06_max        =   2.0502829551697E+00
(PID.TID 0000.0001) %MON trcstat_ptracer06_min        =  -2.7425934094936E-03
(PID.TID 0000.0001) %MON trcstat_ptracer06_mean       =   1.7120763280424E-02
(PID.TID 0000.0001) %MON trcstat_ptracer06_sd         =   1.0931028391102E-01
(PID.TID 0000.0001) %MON trcstat_ptracer06_del2       =   2.9710721251955E-04
(PID.TID 0000.0001) %MON trcstat_ptracer07_max        =   6.8241039116401E-05
(PID.TID 0000.0001) %MON trcstat_ptracer07_min        =  -1.4861747388295E-07
(PID.TID 0000.0001) %MON trcstat_ptracer07_mean       =   2.8553608963585E-07
(PID.TID 0000.0001) %MON trcstat_ptracer07_sd         =   2.0377054782970E-06
(PID.TID 0000.0001) %MON trcstat_ptracer07_del2       =   7.3259219136988E-09
(PID.TID 0000.0001) %MON trcstat_ptracer08_max        =   5.8249201625586E-02
(PID.TID 0000.0001) %MON trcstat_ptracer08_min        =   1.1307660363613E-10
(PID.TID 0000.0001) %MON trcstat_ptracer08_mean       =   3.9970503251071E-05
(PID.TID 0000.0001) %MON trcstat_ptracer08_sd         =   4.1804440612784E-04
(PID.TID 0000.0001) %MON trcstat_ptracer08_del2       =   6.3532053841285E-06
(PID.TID 0000.0001) %MON trcstat_ptracer09_max        =   9.3198722600937E-01
(PID.TID 0000.0001) %MON trcstat_ptracer09_min        =   1.8092256581781E-09
(PID.TID 0000.0001) %MON trcstat_ptracer09_mean       =   6.3952805201714E-04
(PID.TID 0000.0001) %MON trcstat_ptracer09_sd         =   6.6887104980455E-03
(PID.TID 0000.0001) %MON trcstat_ptracer09_del2       =   1.0165128614606E-04
(PID.TID 0000.0001) %MON trcstat_ptracer10_max        =   1.4562300930265E-04
(PID.TID 0000.0001) %MON trcstat_ptracer10_min        =   2.8269151342714E-13
(PID.TID 0000.0001) %MON trcstat_ptracer10_mean       =   9.9926258256676E-08
(PID.TID 0000.0001) %MON trcstat_ptracer10_sd         =   1.0451110199158E-06
(PID.TID 0000.0001) %MON trcstat_ptracer10_del2       =   1.5883013784503E-08
(PID.TID 0000.0001) %MON trcstat_ptracer11_max        =   4.6599361300468E-01
(PID.TID 0000.0001) %MON trcstat_ptracer11_min        =   9.0461282908905E-10
(PID.TID 0000.0001) %MON trcstat_ptracer11_mean       =   3.1976402600857E-04
(PID.TID 0000.0001) %MON trcstat_ptracer11_sd         =   3.3443552490228E-03
(PID.TID 0000.0001) %MON trcstat_ptracer11_del2       =   5.0825643073028E-05
(PID.TID 0000.0001) %MON trcstat_ptracer12_max        =   5.8249201625586E-02
(PID.TID 0000.0001) %MON trcstat_ptracer12_min        =   1.1307660363613E-10
(PID.TID 0000.0001) %MON trcstat_ptracer12_mean       =   3.9970503251071E-05
(PID.TID 0000.0001) %MON trcstat_ptracer12_sd         =   4.1804440612784E-04
(PID.TID 0000.0001) %MON trcstat_ptracer12_del2       =   6.3532053841285E-06
(PID.TID 0000.0001) %MON trcstat_ptracer13_max        =   9.3198722600937E-01
(PID.TID 0000.0001) %MON trcstat_ptracer13_min        =   1.8092256581781E-09
(PID.TID 0000.0001) %MON trcstat_ptracer13_mean       =   6.3952805201714E-04
(PID.TID 0000.0001) %MON trcstat_ptracer13_sd         =   6.6887104980455E-03
(PID.TID 0000.0001) %MON trcstat_ptracer13_del2       =   1.0165128614606E-04
(PID.TID 0000.0001) %MON trcstat_ptracer14_max        =   1.4562300930265E-04
(PID.TID 0000.0001) %MON trcstat_ptracer14_min        =   2.8269151342714E-13
(PID.TID 0000.0001) %MON trcstat_ptracer14_mean       =   9.9926258256676E-08
(PID.TID 0000.0001) %MON trcstat_ptracer14_sd         =   1.0451110199158E-06
(PID.TID 0000.0001) %MON trcstat_ptracer14_del2       =   1.5883013784503E-08
(PID.TID 0000.0001) %MON trcstat_ptracer15_max        =   4.6599361300468E-01
(PID.TID 0000.0001) %MON trcstat_ptracer15_min        =   9.0461282908905E-10
(PID.TID 0000.0001) %MON trcstat_ptracer15_mean       =   3.1976402600857E-04
(PID.TID 0000.0001) %MON trcstat_ptracer15_sd         =   3.3443552490228E-03
(PID.TID 0000.0001) %MON trcstat_ptracer15_del2       =   5.0825643073028E-05
(PID.TID 0000.0001) %MON trcstat_ptracer16_max        =   1.8365858495235E-01
(PID.TID 0000.0001) %MON trcstat_ptracer16_min        =   8.3437399212016E-08
(PID.TID 0000.0001) %MON trcstat_ptracer16_mean       =   1.6939633163567E-03
(PID.TID 0000.0001) %MON trcstat_ptracer16_sd         =   3.6831609222015E-03
(PID.TID 0000.0001) %MON trcstat_ptracer16_del2       =   1.6347621023808E-05
(PID.TID 0000.0001) %MON trcstat_ptracer17_max        =   2.9385373592377E+00
(PID.TID 0000.0001) %MON trcstat_ptracer17_min        =   1.3349983873923E-06
(PID.TID 0000.0001) %MON trcstat_ptracer17_mean       =   2.7103413061707E-02
(PID.TID 0000.0001) %MON trcstat_ptracer17_sd         =   5.8930574755225E-02
(PID.TID 0000.0001) %MON trcstat_ptracer17_del2       =   2.6156193638093E-04
(PID.TID 0000.0001) %MON trcstat_ptracer18_max        =   1.9047880778089E-04
(PID.TID 0000.0001) %MON trcstat_ptracer18_min        =   1.3391438132004E-11
(PID.TID 0000.0001) %MON trcstat_ptracer18_mean       =   7.4623307893105E-07
(PID.TID 0000.0001) %MON trcstat_ptracer18_sd         =   2.4038234079073E-06
(PID.TID 0000.0001) %MON trcstat_ptracer18_del2       =   1.2179256723759E-08
(PID.TID 0000.0001) %MON trcstat_ptracer19_max        =   4.0247123718262E+01
(PID.TID 0000.0001) %MON trcstat_ptracer19_min        =  -1.3386267423630E-01
(PID.TID 0000.0001) %MON trcstat_ptracer19_mean       =   1.5159485877440E-01
(PID.TID 0000.0001) %MON trcstat_ptracer19_sd         =   4.1019145304019E-01
(PID.TID 0000.0001) %MON trcstat_ptracer19_del2       =   2.1470211634402E-03
(PID.TID 0000.0001) %MON trcstat_ptracer20_max        =   7.7443426847458E-01
(PID.TID 0000.0001) %MON trcstat_ptracer20_min        =   7.7357771033348E-07
(PID.TID 0000.0001) %MON trcstat_ptracer20_mean       =   1.0102510745994E-02
(PID.TID 0000.0001) %MON trcstat_ptracer20_sd         =   3.1851925620534E-02
(PID.TID 0000.0001) %MON trcstat_ptracer20_del2       =   4.6204609583607E-05
(PID.TID 0000.0001) %MON trcstat_ptracer21_max        =   2.1305871009827E+00
(PID.TID 0000.0001) %MON trcstat_ptracer21_min        =   2.3391621652991E-06
(PID.TID 0000.0001) %MON trcstat_ptracer21_mean       =   2.6446451498324E-02
(PID.TID 0000.0001) %MON trcstat_ptracer21_sd         =   7.9563742610568E-02
(PID.TID 0000.0001) %MON trcstat_ptracer21_del2       =   1.0485369840004E-04
(PID.TID 0000.0001) %MON trcstat_ptracer22_max        =   5.9742769226432E-03
(PID.TID 0000.0001) %MON trcstat_ptracer22_min        =   1.1597600484137E-11
(PID.TID 0000.0001) %MON trcstat_ptracer22_mean       =   4.0995388005239E-06
(PID.TID 0000.0001) %MON trcstat_ptracer22_sd         =   4.2876349365146E-05
(PID.TID 0000.0001) %MON trcstat_ptracer22_del2       =   6.5161080984703E-07
(PID.TID 0000.0001) %MON trcstat_ptracer23_max        =   5.9742769226432E-03
(PID.TID 0000.0001) %MON trcstat_ptracer23_min        =   1.1597600484137E-11
(PID.TID 0000.0001) %MON trcstat_ptracer23_mean       =   4.0995388005239E-06
(PID.TID 0000.0001) %MON trcstat_ptracer23_sd         =   4.2876349365146E-05
(PID.TID 0000.0001) %MON trcstat_ptracer23_del2       =   6.5161080984703E-07
(PID.TID 0000.0001) %MON trcstat_ptracer24_max        =   5.9742769226432E-03
(PID.TID 0000.0001) %MON trcstat_ptracer24_min        =   1.1597600484137E-11
(PID.TID 0000.0001) %MON trcstat_ptracer24_mean       =   4.0995388005239E-06
(PID.TID 0000.0001) %MON trcstat_ptracer24_sd         =   4.2876349365146E-05
(PID.TID 0000.0001) %MON trcstat_ptracer24_del2       =   6.5161080984703E-07
(PID.TID 0000.0001) %MON trcstat_ptracer25_max        =   5.9742769226432E-03
(PID.TID 0000.0001) %MON trcstat_ptracer25_min        =   1.1597600484137E-11
(PID.TID 0000.0001) %MON trcstat_ptracer25_mean       =   4.0995388005239E-06
(PID.TID 0000.0001) %MON trcstat_ptracer25_sd         =   4.2876349365146E-05
(PID.TID 0000.0001) %MON trcstat_ptracer25_del2       =   6.5161080984703E-07
(PID.TID 0000.0001) %MON trcstat_ptracer26_max        =   5.9742769226432E-03
(PID.TID 0000.0001) %MON trcstat_ptracer26_min        =   1.1597600484137E-11
(PID.TID 0000.0001) %MON trcstat_ptracer26_mean       =   4.0995388005239E-06
(PID.TID 0000.0001) %MON trcstat_ptracer26_sd         =   4.2876349365146E-05
(PID.TID 0000.0001) %MON trcstat_ptracer26_del2       =   6.5161080984703E-07
(PID.TID 0000.0001) %MON trcstat_ptracer27_max        =   5.9742769226432E-03
(PID.TID 0000.0001) %MON trcstat_ptracer27_min        =   1.1597600484137E-11
(PID.TID 0000.0001) %MON trcstat_ptracer27_mean       =   4.0995388005239E-06
(PID.TID 0000.0001) %MON trcstat_ptracer27_sd         =   4.2876349365146E-05
(PID.TID 0000.0001) %MON trcstat_ptracer27_del2       =   6.5161080984703E-07
(PID.TID 0000.0001) %MON trcstat_ptracer28_max        =   5.9742769226432E-03
(PID.TID 0000.0001) %MON trcstat_ptracer28_min        =   1.1597600484137E-11
(PID.TID 0000.0001) %MON trcstat_ptracer28_mean       =   4.0995388005239E-06
(PID.TID 0000.0001) %MON trcstat_ptracer28_sd         =   4.2876349365146E-05
(PID.TID 0000.0001) %MON trcstat_ptracer28_del2       =   6.5161080984703E-07
(PID.TID 0000.0001) %MON trcstat_ptracer29_max        =   5.9742769226432E-03
(PID.TID 0000.0001) %MON trcstat_ptracer29_min        =   1.1597600484137E-11
(PID.TID 0000.0001) %MON trcstat_ptracer29_mean       =   4.0995388005239E-06
(PID.TID 0000.0001) %MON trcstat_ptracer29_sd         =   4.2876349365146E-05
(PID.TID 0000.0001) %MON trcstat_ptracer29_del2       =   6.5161080984703E-07
(PID.TID 0000.0001) %MON trcstat_ptracer30_max        =   5.9742769226432E-03
(PID.TID 0000.0001) %MON trcstat_ptracer30_min        =   1.1597600484137E-11
(PID.TID 0000.0001) %MON trcstat_ptracer30_mean       =   4.0995388005239E-06
(PID.TID 0000.0001) %MON trcstat_ptracer30_sd         =   4.2876349365146E-05
(PID.TID 0000.0001) %MON trcstat_ptracer30_del2       =   6.5161080984703E-07
(PID.TID 0000.0001) %MON trcstat_ptracer31_max        =   5.9742769226432E-03
(PID.TID 0000.0001) %MON trcstat_ptracer31_min        =   1.1597600484137E-11
(PID.TID 0000.0001) %MON trcstat_ptracer31_mean       =   4.0995388005239E-06
(PID.TID 0000.0001) %MON trcstat_ptracer31_sd         =   4.2876349365146E-05
(PID.TID 0000.0001) %MON trcstat_ptracer31_del2       =   6.5161080984703E-07
(PID.TID 0000.0001) %MON trcstat_ptracer32_max        =   5.9742769226432E-03
(PID.TID 0000.0001) %MON trcstat_ptracer32_min        =   1.1597600484137E-11
(PID.TID 0000.0001) %MON trcstat_ptracer32_mean       =   4.0995388005239E-06
(PID.TID 0000.0001) %MON trcstat_ptracer32_sd         =   4.2876349365146E-05
(PID.TID 0000.0001) %MON trcstat_ptracer32_del2       =   6.5161080984703E-07
(PID.TID 0000.0001) %MON trcstat_ptracer33_max        =   5.9742769226432E-03
(PID.TID 0000.0001) %MON trcstat_ptracer33_min        =   1.1597600484137E-11
(PID.TID 0000.0001) %MON trcstat_ptracer33_mean       =   4.0995388005239E-06
(PID.TID 0000.0001) %MON trcstat_ptracer33_sd         =   4.2876349365146E-05
(PID.TID 0000.0001) %MON trcstat_ptracer33_del2       =   6.5161080984703E-07
(PID.TID 0000.0001) %MON trcstat_ptracer34_max        =   5.9742769226432E-03
(PID.TID 0000.0001) %MON trcstat_ptracer34_min        =   1.1597600484137E-11
(PID.TID 0000.0001) %MON trcstat_ptracer34_mean       =   4.0995388005239E-06
(PID.TID 0000.0001) %MON trcstat_ptracer34_sd         =   4.2876349365146E-05
(PID.TID 0000.0001) %MON trcstat_ptracer34_del2       =   6.5161080984703E-07
(PID.TID 0000.0001) %MON trcstat_ptracer35_max        =   5.9742769226432E-03
(PID.TID 0000.0001) %MON trcstat_ptracer35_min        =   1.1597600484137E-11
(PID.TID 0000.0001) %MON trcstat_ptracer35_mean       =   4.0995388005239E-06
(PID.TID 0000.0001) %MON trcstat_ptracer35_sd         =   4.2876349365146E-05
(PID.TID 0000.0001) %MON trcstat_ptracer35_del2       =   6.5161080984703E-07
(PID.TID 0000.0001) %MON trcstat_ptracer36_max        =   5.9742769226432E-03
(PID.TID 0000.0001) %MON trcstat_ptracer36_min        =   1.1597600484137E-11
(PID.TID 0000.0001) %MON trcstat_ptracer36_mean       =   4.0995388005239E-06
(PID.TID 0000.0001) %MON trcstat_ptracer36_sd         =   4.2876349365146E-05
(PID.TID 0000.0001) %MON trcstat_ptracer36_del2       =   6.5161080984703E-07
(PID.TID 0000.0001) %MON trcstat_ptracer37_max        =   5.9742769226432E-03
(PID.TID 0000.0001) %MON trcstat_ptracer37_min        =   1.1597600484137E-11
(PID.TID 0000.0001) %MON trcstat_ptracer37_mean       =   4.0995388005239E-06
(PID.TID 0000.0001) %MON trcstat_ptracer37_sd         =   4.2876349365146E-05
(PID.TID 0000.0001) %MON trcstat_ptracer37_del2       =   6.5161080984703E-07
(PID.TID 0000.0001) %MON trcstat_ptracer38_max        =   5.9742769226432E-03
(PID.TID 0000.0001) %MON trcstat_ptracer38_min        =   1.1597600484137E-11
(PID.TID 0000.0001) %MON trcstat_ptracer38_mean       =   4.0995388005239E-06
(PID.TID 0000.0001) %MON trcstat_ptracer38_sd         =   4.2876349365146E-05
(PID.TID 0000.0001) %MON trcstat_ptracer38_del2       =   6.5161080984703E-07
(PID.TID 0000.0001) %MON trcstat_ptracer39_max        =   5.9742769226432E-03
(PID.TID 0000.0001) %MON trcstat_ptracer39_min        =   1.1597600484137E-11
(PID.TID 0000.0001) %MON trcstat_ptracer39_mean       =   4.0995388005239E-06
(PID.TID 0000.0001) %MON trcstat_ptracer39_sd         =   4.2876349365146E-05
(PID.TID 0000.0001) %MON trcstat_ptracer39_del2       =   6.5161080984703E-07
(PID.TID 0000.0001) %MON trcstat_ptracer40_max        =   5.9742769226432E-03
(PID.TID 0000.0001) %MON trcstat_ptracer40_min        =   1.1597600484137E-11
(PID.TID 0000.0001) %MON trcstat_ptracer40_mean       =   4.0995388005239E-06
(PID.TID 0000.0001) %MON trcstat_ptracer40_sd         =   4.2876349365146E-05
(PID.TID 0000.0001) %MON trcstat_ptracer40_del2       =   6.5161080984703E-07
(PID.TID 0000.0001) %MON trcstat_ptracer41_max        =   5.9742769226432E-03
(PID.TID 0000.0001) %MON trcstat_ptracer41_min        =   1.1597600484137E-11
(PID.TID 0000.0001) %MON trcstat_ptracer41_mean       =   4.0995388005239E-06
(PID.TID 0000.0001) %MON trcstat_ptracer41_sd         =   4.2876349365146E-05
(PID.TID 0000.0001) %MON trcstat_ptracer41_del2       =   6.5161080984703E-07
(PID.TID 0000.0001) %MON trcstat_ptracer42_max        =   5.9742769226432E-03
(PID.TID 0000.0001) %MON trcstat_ptracer42_min        =   1.1597600484137E-11
(PID.TID 0000.0001) %MON trcstat_ptracer42_mean       =   4.0995388005239E-06
(PID.TID 0000.0001) %MON trcstat_ptracer42_sd         =   4.2876349365146E-05
(PID.TID 0000.0001) %MON trcstat_ptracer42_del2       =   6.5161080984703E-07
(PID.TID 0000.0001) %MON trcstat_ptracer43_max        =   5.9742769226432E-03
(PID.TID 0000.0001) %MON trcstat_ptracer43_min        =   1.1597600484137E-11
(PID.TID 0000.0001) %MON trcstat_ptracer43_mean       =   4.0995388005239E-06
(PID.TID 0000.0001) %MON trcstat_ptracer43_sd         =   4.2876349365146E-05
(PID.TID 0000.0001) %MON trcstat_ptracer43_del2       =   6.5161080984703E-07
(PID.TID 0000.0001) %MON trcstat_ptracer44_max        =   5.9742769226432E-03
(PID.TID 0000.0001) %MON trcstat_ptracer44_min        =   1.1597600484137E-11
(PID.TID 0000.0001) %MON trcstat_ptracer44_mean       =   4.0995388005239E-06
(PID.TID 0000.0001) %MON trcstat_ptracer44_sd         =   4.2876349365146E-05
(PID.TID 0000.0001) %MON trcstat_ptracer44_del2       =   6.5161080984703E-07
(PID.TID 0000.0001) %MON trcstat_ptracer45_max        =   5.9742769226432E-03
(PID.TID 0000.0001) %MON trcstat_ptracer45_min        =   1.1597600484137E-11
(PID.TID 0000.0001) %MON trcstat_ptracer45_mean       =   4.0995388005239E-06
(PID.TID 0000.0001) %MON trcstat_ptracer45_sd         =   4.2876349365146E-05
(PID.TID 0000.0001) %MON trcstat_ptracer45_del2       =   6.5161080984703E-07
(PID.TID 0000.0001) %MON trcstat_ptracer46_max        =   5.9742769226432E-03
(PID.TID 0000.0001) %MON trcstat_ptracer46_min        =   1.1597600484137E-11
(PID.TID 0000.0001) %MON trcstat_ptracer46_mean       =   4.0995388005239E-06
(PID.TID 0000.0001) %MON trcstat_ptracer46_sd         =   4.2876349365146E-05
(PID.TID 0000.0001) %MON trcstat_ptracer46_del2       =   6.5161080984703E-07
(PID.TID 0000.0001) %MON trcstat_ptracer47_max        =   5.9742769226432E-03
(PID.TID 0000.0001) %MON trcstat_ptracer47_min        =   1.1597600484137E-11
(PID.TID 0000.0001) %MON trcstat_ptracer47_mean       =   4.0995388005239E-06
(PID.TID 0000.0001) %MON trcstat_ptracer47_sd         =   4.2876349365146E-05
(PID.TID 0000.0001) %MON trcstat_ptracer47_del2       =   6.5161080984703E-07
(PID.TID 0000.0001) %MON trcstat_ptracer48_max        =   5.9742769226432E-03
(PID.TID 0000.0001) %MON trcstat_ptracer48_min        =   1.1597600484137E-11
(PID.TID 0000.0001) %MON trcstat_ptracer48_mean       =   4.0995388005239E-06
(PID.TID 0000.0001) %MON trcstat_ptracer48_sd         =   4.2876349365146E-05
(PID.TID 0000.0001) %MON trcstat_ptracer48_del2       =   6.5161080984703E-07
(PID.TID 0000.0001) %MON trcstat_ptracer49_max        =   5.9742769226432E-03
(PID.TID 0000.0001) %MON trcstat_ptracer49_min        =   1.1597600484137E-11
(PID.TID 0000.0001) %MON trcstat_ptracer49_mean       =   4.0995388005239E-06
(PID.TID 0000.0001) %MON trcstat_ptracer49_sd         =   4.2876349365146E-05
(PID.TID 0000.0001) %MON trcstat_ptracer49_del2       =   6.5161080984703E-07
(PID.TID 0000.0001) %MON trcstat_ptracer50_max        =   5.9742769226432E-03
(PID.TID 0000.0001) %MON trcstat_ptracer50_min        =   1.1597600484137E-11
(PID.TID 0000.0001) %MON trcstat_ptracer50_mean       =   4.0995388005239E-06
(PID.TID 0000.0001) %MON trcstat_ptracer50_sd         =   4.2876349365146E-05
(PID.TID 0000.0001) %MON trcstat_ptracer50_del2       =   6.5161080984703E-07
(PID.TID 0000.0001) %MON trcstat_ptracer51_max        =   5.9742769226432E-03
(PID.TID 0000.0001) %MON trcstat_ptracer51_min        =   1.1597600484137E-11
(PID.TID 0000.0001) %MON trcstat_ptracer51_mean       =   4.0995388005239E-06
(PID.TID 0000.0001) %MON trcstat_ptracer51_sd         =   4.2876349365146E-05
(PID.TID 0000.0001) %MON trcstat_ptracer51_del2       =   6.5161080984703E-07
(PID.TID 0000.0001) %MON trcstat_ptracer52_max        =   5.9742769226432E-03
(PID.TID 0000.0001) %MON trcstat_ptracer52_min        =   1.1597600484137E-11
(PID.TID 0000.0001) %MON trcstat_ptracer52_mean       =   4.0995388005239E-06
(PID.TID 0000.0001) %MON trcstat_ptracer52_sd         =   4.2876349365146E-05
(PID.TID 0000.0001) %MON trcstat_ptracer52_del2       =   6.5161080984703E-07
(PID.TID 0000.0001) %MON trcstat_ptracer53_max        =   5.9742769226432E-03
(PID.TID 0000.0001) %MON trcstat_ptracer53_min        =   1.1597600484137E-11
(PID.TID 0000.0001) %MON trcstat_ptracer53_mean       =   4.0995388005239E-06
(PID.TID 0000.0001) %MON trcstat_ptracer53_sd         =   4.2876349365146E-05
(PID.TID 0000.0001) %MON trcstat_ptracer53_del2       =   6.5161080984703E-07
(PID.TID 0000.0001) %MON trcstat_ptracer54_max        =   5.9742769226432E-03
(PID.TID 0000.0001) %MON trcstat_ptracer54_min        =   1.1597600484137E-11
(PID.TID 0000.0001) %MON trcstat_ptracer54_mean       =   4.0995388005239E-06
(PID.TID 0000.0001) %MON trcstat_ptracer54_sd         =   4.2876349365146E-05
(PID.TID 0000.0001) %MON trcstat_ptracer54_del2       =   6.5161080984703E-07
(PID.TID 0000.0001) %MON trcstat_ptracer55_max        =   5.9742769226432E-03
(PID.TID 0000.0001) %MON trcstat_ptracer55_min        =   1.1597600484137E-11
(PID.TID 0000.0001) %MON trcstat_ptracer55_mean       =   4.0995388005239E-06
(PID.TID 0000.0001) %MON trcstat_ptracer55_sd         =   4.2876349365146E-05
(PID.TID 0000.0001) %MON trcstat_ptracer55_del2       =   6.5161080984703E-07
(PID.TID 0000.0001) %MON trcstat_ptracer56_max        =   5.9742769226432E-03
(PID.TID 0000.0001) %MON trcstat_ptracer56_min        =   1.1597600484137E-11
(PID.TID 0000.0001) %MON trcstat_ptracer56_mean       =   4.0995388005239E-06
(PID.TID 0000.0001) %MON trcstat_ptracer56_sd         =   4.2876349365146E-05
(PID.TID 0000.0001) %MON trcstat_ptracer56_del2       =   6.5161080984703E-07
(PID.TID 0000.0001) %MON trcstat_ptracer57_max        =   5.9742769226432E-03
(PID.TID 0000.0001) %MON trcstat_ptracer57_min        =   1.1597600484137E-11
(PID.TID 0000.0001) %MON trcstat_ptracer57_mean       =   4.0995388005239E-06
(PID.TID 0000.0001) %MON trcstat_ptracer57_sd         =   4.2876349365146E-05
(PID.TID 0000.0001) %MON trcstat_ptracer57_del2       =   6.5161080984703E-07
(PID.TID 0000.0001) %MON trcstat_ptracer58_max        =   5.9742769226432E-03
(PID.TID 0000.0001) %MON trcstat_ptracer58_min        =   1.1597600484137E-11
(PID.TID 0000.0001) %MON trcstat_ptracer58_mean       =   4.0995388005239E-06
(PID.TID 0000.0001) %MON trcstat_ptracer58_sd         =   4.2876349365146E-05
(PID.TID 0000.0001) %MON trcstat_ptracer58_del2       =   6.5161080984703E-07
(PID.TID 0000.0001) %MON trcstat_ptracer59_max        =   5.9742769226432E-03
(PID.TID 0000.0001) %MON trcstat_ptracer59_min        =   1.1597600484137E-11
(PID.TID 0000.0001) %MON trcstat_ptracer59_mean       =   4.0995388005239E-06
(PID.TID 0000.0001) %MON trcstat_ptracer59_sd         =   4.2876349365146E-05
(PID.TID 0000.0001) %MON trcstat_ptracer59_del2       =   6.5161080984703E-07
(PID.TID 0000.0001) %MON trcstat_ptracer60_max        =   5.9742769226432E-03
(PID.TID 0000.0001) %MON trcstat_ptracer60_min        =   1.1597600484137E-11
(PID.TID 0000.0001) %MON trcstat_ptracer60_mean       =   4.0995388005239E-06
(PID.TID 0000.0001) %MON trcstat_ptracer60_sd         =   4.2876349365146E-05
(PID.TID 0000.0001) %MON trcstat_ptracer60_del2       =   6.5161080984703E-07
(PID.TID 0000.0001) %MON trcstat_ptracer61_max        =   5.9742769226432E-03
(PID.TID 0000.0001) %MON trcstat_ptracer61_min        =   1.1597600484137E-11
(PID.TID 0000.0001) %MON trcstat_ptracer61_mean       =   4.0995388005239E-06
(PID.TID 0000.0001) %MON trcstat_ptracer61_sd         =   4.2876349365146E-05
(PID.TID 0000.0001) %MON trcstat_ptracer61_del2       =   6.5161080984703E-07
(PID.TID 0000.0001) %MON trcstat_ptracer62_max        =   5.9742769226432E-03
(PID.TID 0000.0001) %MON trcstat_ptracer62_min        =   1.1597600484137E-11
(PID.TID 0000.0001) %MON trcstat_ptracer62_mean       =   4.0995388005239E-06
(PID.TID 0000.0001) %MON trcstat_ptracer62_sd         =   4.2876349365146E-05
(PID.TID 0000.0001) %MON trcstat_ptracer62_del2       =   6.5161080984703E-07
(PID.TID 0000.0001) %MON trcstat_ptracer63_max        =   5.9742769226432E-03
(PID.TID 0000.0001) %MON trcstat_ptracer63_min        =   1.1597600484137E-11
(PID.TID 0000.0001) %MON trcstat_ptracer63_mean       =   4.0995388005239E-06
(PID.TID 0000.0001) %MON trcstat_ptracer63_sd         =   4.2876349365146E-05
(PID.TID 0000.0001) %MON trcstat_ptracer63_del2       =   6.5161080984703E-07
(PID.TID 0000.0001) %MON trcstat_ptracer64_max        =   5.9742769226432E-03
(PID.TID 0000.0001) %MON trcstat_ptracer64_min        =   1.1597600484137E-11
(PID.TID 0000.0001) %MON trcstat_ptracer64_mean       =   4.0995388005239E-06
(PID.TID 0000.0001) %MON trcstat_ptracer64_sd         =   4.2876349365146E-05
(PID.TID 0000.0001) %MON trcstat_ptracer64_del2       =   6.5161080984703E-07
(PID.TID 0000.0001) %MON trcstat_ptracer65_max        =   5.9742769226432E-03
(PID.TID 0000.0001) %MON trcstat_ptracer65_min        =   1.1597600484137E-11
(PID.TID 0000.0001) %MON trcstat_ptracer65_mean       =   4.0995388005239E-06
(PID.TID 0000.0001) %MON trcstat_ptracer65_sd         =   4.2876349365146E-05
(PID.TID 0000.0001) %MON trcstat_ptracer65_del2       =   6.5161080984703E-07
(PID.TID 0000.0001) %MON trcstat_ptracer66_max        =   5.9742769226432E-03
(PID.TID 0000.0001) %MON trcstat_ptracer66_min        =   1.1597600484137E-11
(PID.TID 0000.0001) %MON trcstat_ptracer66_mean       =   4.0995388005239E-06
(PID.TID 0000.0001) %MON trcstat_ptracer66_sd         =   4.2876349365146E-05
(PID.TID 0000.0001) %MON trcstat_ptracer66_del2       =   6.5161080984703E-07
(PID.TID 0000.0001) %MON trcstat_ptracer67_max        =   5.9742769226432E-03
(PID.TID 0000.0001) %MON trcstat_ptracer67_min        =   1.1597600484137E-11
(PID.TID 0000.0001) %MON trcstat_ptracer67_mean       =   4.0995388005239E-06
(PID.TID 0000.0001) %MON trcstat_ptracer67_sd         =   4.2876349365146E-05
(PID.TID 0000.0001) %MON trcstat_ptracer67_del2       =   6.5161080984703E-07
(PID.TID 0000.0001) %MON trcstat_ptracer68_max        =   5.9742769226432E-03
(PID.TID 0000.0001) %MON trcstat_ptracer68_min        =   1.1597600484137E-11
(PID.TID 0000.0001) %MON trcstat_ptracer68_mean       =   4.0995388005239E-06
(PID.TID 0000.0001) %MON trcstat_ptracer68_sd         =   4.2876349365146E-05
(PID.TID 0000.0001) %MON trcstat_ptracer68_del2       =   6.5161080984703E-07
(PID.TID 0000.0001) %MON trcstat_ptracer69_max        =   5.9742769226432E-03
(PID.TID 0000.0001) %MON trcstat_ptracer69_min        =   1.1597600484137E-11
(PID.TID 0000.0001) %MON trcstat_ptracer69_mean       =   4.0995388005239E-06
(PID.TID 0000.0001) %MON trcstat_ptracer69_sd         =   4.2876349365146E-05
(PID.TID 0000.0001) %MON trcstat_ptracer69_del2       =   6.5161080984703E-07
(PID.TID 0000.0001) %MON trcstat_ptracer70_max        =   5.9742769226432E-03
(PID.TID 0000.0001) %MON trcstat_ptracer70_min        =   1.1597600484137E-11
(PID.TID 0000.0001) %MON trcstat_ptracer70_mean       =   4.0995388005239E-06
(PID.TID 0000.0001) %MON trcstat_ptracer70_sd         =   4.2876349365146E-05
(PID.TID 0000.0001) %MON trcstat_ptracer70_del2       =   6.5161080984703E-07
(PID.TID 0000.0001) %MON trcstat_ptracer71_max        =   5.9742769226432E-03
(PID.TID 0000.0001) %MON trcstat_ptracer71_min        =   1.1597600484137E-11
(PID.TID 0000.0001) %MON trcstat_ptracer71_mean       =   4.0995388005239E-06
(PID.TID 0000.0001) %MON trcstat_ptracer71_sd         =   4.2876349365146E-05
(PID.TID 0000.0001) %MON trcstat_ptracer71_del2       =   6.5161080984703E-07
(PID.TID 0000.0001) %MON trcstat_ptracer72_max        =   5.9742769226432E-03
(PID.TID 0000.0001) %MON trcstat_ptracer72_min        =   1.1597600484137E-11
(PID.TID 0000.0001) %MON trcstat_ptracer72_mean       =   4.0995388005239E-06
(PID.TID 0000.0001) %MON trcstat_ptracer72_sd         =   4.2876349365146E-05
(PID.TID 0000.0001) %MON trcstat_ptracer72_del2       =   6.5161080984703E-07
(PID.TID 0000.0001) %MON trcstat_ptracer73_max        =   5.9742769226432E-03
(PID.TID 0000.0001) %MON trcstat_ptracer73_min        =   1.1597600484137E-11
(PID.TID 0000.0001) %MON trcstat_ptracer73_mean       =   4.0995388005239E-06
(PID.TID 0000.0001) %MON trcstat_ptracer73_sd         =   4.2876349365146E-05
(PID.TID 0000.0001) %MON trcstat_ptracer73_del2       =   6.5161080984703E-07
(PID.TID 0000.0001) %MON trcstat_ptracer74_max        =   5.9742769226432E-03
(PID.TID 0000.0001) %MON trcstat_ptracer74_min        =   1.1597600484137E-11
(PID.TID 0000.0001) %MON trcstat_ptracer74_mean       =   4.0995388005239E-06
(PID.TID 0000.0001) %MON trcstat_ptracer74_sd         =   4.2876349365146E-05
(PID.TID 0000.0001) %MON trcstat_ptracer74_del2       =   6.5161080984703E-07
(PID.TID 0000.0001) %MON trcstat_ptracer75_max        =   5.9742769226432E-03
(PID.TID 0000.0001) %MON trcstat_ptracer75_min        =   1.1597600484137E-11
(PID.TID 0000.0001) %MON trcstat_ptracer75_mean       =   4.0995388005239E-06
(PID.TID 0000.0001) %MON trcstat_ptracer75_sd         =   4.2876349365146E-05
(PID.TID 0000.0001) %MON trcstat_ptracer75_del2       =   6.5161080984703E-07
(PID.TID 0000.0001) %MON trcstat_ptracer76_max        =   5.9742769226432E-03
(PID.TID 0000.0001) %MON trcstat_ptracer76_min        =   1.1597600484137E-11
(PID.TID 0000.0001) %MON trcstat_ptracer76_mean       =   4.0995388005239E-06
(PID.TID 0000.0001) %MON trcstat_ptracer76_sd         =   4.2876349365146E-05
(PID.TID 0000.0001) %MON trcstat_ptracer76_del2       =   6.5161080984703E-07
(PID.TID 0000.0001) %MON trcstat_ptracer77_max        =   5.9742769226432E-03
(PID.TID 0000.0001) %MON trcstat_ptracer77_min        =   1.1597600484137E-11
(PID.TID 0000.0001) %MON trcstat_ptracer77_mean       =   4.0995388005239E-06
(PID.TID 0000.0001) %MON trcstat_ptracer77_sd         =   4.2876349365146E-05
(PID.TID 0000.0001) %MON trcstat_ptracer77_del2       =   6.5161080984703E-07
(PID.TID 0000.0001) %MON trcstat_ptracer78_max        =   5.9742769226432E-03
(PID.TID 0000.0001) %MON trcstat_ptracer78_min        =   1.1597600484137E-11
(PID.TID 0000.0001) %MON trcstat_ptracer78_mean       =   4.0995388005239E-06
(PID.TID 0000.0001) %MON trcstat_ptracer78_sd         =   4.2876349365146E-05
(PID.TID 0000.0001) %MON trcstat_ptracer78_del2       =   6.5161080984703E-07
(PID.TID 0000.0001) %MON trcstat_ptracer79_max        =   5.9742769226432E-03
(PID.TID 0000.0001) %MON trcstat_ptracer79_min        =   1.1597600484137E-11
(PID.TID 0000.0001) %MON trcstat_ptracer79_mean       =   4.0995388005239E-06
(PID.TID 0000.0001) %MON trcstat_ptracer79_sd         =   4.2876349365146E-05
(PID.TID 0000.0001) %MON trcstat_ptracer79_del2       =   6.5161080984703E-07
(PID.TID 0000.0001) %MON trcstat_ptracer80_max        =   5.9742769226432E-03
(PID.TID 0000.0001) %MON trcstat_ptracer80_min        =   1.1597600484137E-11
(PID.TID 0000.0001) %MON trcstat_ptracer80_mean       =   4.0995388005239E-06
(PID.TID 0000.0001) %MON trcstat_ptracer80_sd         =   4.2876349365146E-05
(PID.TID 0000.0001) %MON trcstat_ptracer80_del2       =   6.5161080984703E-07
(PID.TID 0000.0001) %MON trcstat_ptracer81_max        =   5.9742769226432E-03
(PID.TID 0000.0001) %MON trcstat_ptracer81_min        =   1.1597600484137E-11
(PID.TID 0000.0001) %MON trcstat_ptracer81_mean       =   4.0995388005239E-06
(PID.TID 0000.0001) %MON trcstat_ptracer81_sd         =   4.2876349365146E-05
(PID.TID 0000.0001) %MON trcstat_ptracer81_del2       =   6.5161080984703E-07
(PID.TID 0000.0001) %MON trcstat_ptracer82_max        =   5.9742769226432E-03
(PID.TID 0000.0001) %MON trcstat_ptracer82_min        =   1.1597600484137E-11
(PID.TID 0000.0001) %MON trcstat_ptracer82_mean       =   4.0995388005239E-06
(PID.TID 0000.0001) %MON trcstat_ptracer82_sd         =   4.2876349365146E-05
(PID.TID 0000.0001) %MON trcstat_ptracer82_del2       =   6.5161080984703E-07
(PID.TID 0000.0001) %MON trcstat_ptracer83_max        =   5.9742769226432E-03
(PID.TID 0000.0001) %MON trcstat_ptracer83_min        =   1.1597600484137E-11
(PID.TID 0000.0001) %MON trcstat_ptracer83_mean       =   4.0995388005239E-06
(PID.TID 0000.0001) %MON trcstat_ptracer83_sd         =   4.2876349365146E-05
(PID.TID 0000.0001) %MON trcstat_ptracer83_del2       =   6.5161080984703E-07
(PID.TID 0000.0001) %MON trcstat_ptracer84_max        =   5.9742769226432E-03
(PID.TID 0000.0001) %MON trcstat_ptracer84_min        =   1.1597600484137E-11
(PID.TID 0000.0001) %MON trcstat_ptracer84_mean       =   4.0995388005239E-06
(PID.TID 0000.0001) %MON trcstat_ptracer84_sd         =   4.2876349365146E-05
(PID.TID 0000.0001) %MON trcstat_ptracer84_del2       =   6.5161080984703E-07
(PID.TID 0000.0001) %MON trcstat_ptracer85_max        =   5.9742769226432E-03
(PID.TID 0000.0001) %MON trcstat_ptracer85_min        =   1.1597600484137E-11
(PID.TID 0000.0001) %MON trcstat_ptracer85_mean       =   4.0995388005239E-06
(PID.TID 0000.0001) %MON trcstat_ptracer85_sd         =   4.2876349365146E-05
(PID.TID 0000.0001) %MON trcstat_ptracer85_del2       =   6.5161080984703E-07
(PID.TID 0000.0001) %MON trcstat_ptracer86_max        =   5.9742769226432E-03
(PID.TID 0000.0001) %MON trcstat_ptracer86_min        =   1.1597600484137E-11
(PID.TID 0000.0001) %MON trcstat_ptracer86_mean       =   4.0995388005239E-06
(PID.TID 0000.0001) %MON trcstat_ptracer86_sd         =   4.2876349365146E-05
(PID.TID 0000.0001) %MON trcstat_ptracer86_del2       =   6.5161080984703E-07
(PID.TID 0000.0001) %MON trcstat_ptracer87_max        =   5.9742769226432E-03
(PID.TID 0000.0001) %MON trcstat_ptracer87_min        =   1.1597600484137E-11
(PID.TID 0000.0001) %MON trcstat_ptracer87_mean       =   4.0995388005239E-06
(PID.TID 0000.0001) %MON trcstat_ptracer87_sd         =   4.2876349365146E-05
(PID.TID 0000.0001) %MON trcstat_ptracer87_del2       =   6.5161080984703E-07
(PID.TID 0000.0001) %MON trcstat_ptracer88_max        =   5.9742769226432E-03
(PID.TID 0000.0001) %MON trcstat_ptracer88_min        =   1.1597600484137E-11
(PID.TID 0000.0001) %MON trcstat_ptracer88_mean       =   4.0995388005239E-06
(PID.TID 0000.0001) %MON trcstat_ptracer88_sd         =   4.2876349365146E-05
(PID.TID 0000.0001) %MON trcstat_ptracer88_del2       =   6.5161080984703E-07
(PID.TID 0000.0001) %MON trcstat_ptracer89_max        =   5.9742769226432E-03
(PID.TID 0000.0001) %MON trcstat_ptracer89_min        =   1.1597600484137E-11
(PID.TID 0000.0001) %MON trcstat_ptracer89_mean       =   4.0995388005239E-06
(PID.TID 0000.0001) %MON trcstat_ptracer89_sd         =   4.2876349365146E-05
(PID.TID 0000.0001) %MON trcstat_ptracer89_del2       =   6.5161080984703E-07
(PID.TID 0000.0001) %MON trcstat_ptracer90_max        =   5.9742769226432E-03
(PID.TID 0000.0001) %MON trcstat_ptracer90_min        =   1.1597600484137E-11
(PID.TID 0000.0001) %MON trcstat_ptracer90_mean       =   4.0995388005239E-06
(PID.TID 0000.0001) %MON trcstat_ptracer90_sd         =   4.2876349365146E-05
(PID.TID 0000.0001) %MON trcstat_ptracer90_del2       =   6.5161080984703E-07
(PID.TID 0000.0001) %MON trcstat_ptracer91_max        =   5.9742769226432E-03
(PID.TID 0000.0001) %MON trcstat_ptracer91_min        =   1.1597600484137E-11
(PID.TID 0000.0001) %MON trcstat_ptracer91_mean       =   4.0995388005239E-06
(PID.TID 0000.0001) %MON trcstat_ptracer91_sd         =   4.2876349365146E-05
(PID.TID 0000.0001) %MON trcstat_ptracer91_del2       =   6.5161080984703E-07
(PID.TID 0000.0001) %MON trcstat_ptracer92_max        =   5.9742769226432E-03
(PID.TID 0000.0001) %MON trcstat_ptracer92_min        =   1.1597600484137E-11
(PID.TID 0000.0001) %MON trcstat_ptracer92_mean       =   4.0995388005239E-06
(PID.TID 0000.0001) %MON trcstat_ptracer92_sd         =   4.2876349365146E-05
(PID.TID 0000.0001) %MON trcstat_ptracer92_del2       =   6.5161080984703E-07
(PID.TID 0000.0001) %MON trcstat_ptracer93_max        =   5.9742769226432E-03
(PID.TID 0000.0001) %MON trcstat_ptracer93_min        =   1.1597600484137E-11
(PID.TID 0000.0001) %MON trcstat_ptracer93_mean       =   4.0995388005239E-06
(PID.TID 0000.0001) %MON trcstat_ptracer93_sd         =   4.2876349365146E-05
(PID.TID 0000.0001) %MON trcstat_ptracer93_del2       =   6.5161080984703E-07
(PID.TID 0000.0001) %MON trcstat_ptracer94_max        =   5.9742769226432E-03
(PID.TID 0000.0001) %MON trcstat_ptracer94_min        =   1.1597600484137E-11
(PID.TID 0000.0001) %MON trcstat_ptracer94_mean       =   4.0995388005239E-06
(PID.TID 0000.0001) %MON trcstat_ptracer94_sd         =   4.2876349365146E-05
(PID.TID 0000.0001) %MON trcstat_ptracer94_del2       =   6.5161080984703E-07
(PID.TID 0000.0001) %MON trcstat_ptracer95_max        =   5.9742769226432E-03
(PID.TID 0000.0001) %MON trcstat_ptracer95_min        =   1.1597600484137E-11
(PID.TID 0000.0001) %MON trcstat_ptracer95_mean       =   4.0995388005239E-06
(PID.TID 0000.0001) %MON trcstat_ptracer95_sd         =   4.2876349365146E-05
(PID.TID 0000.0001) %MON trcstat_ptracer95_del2       =   6.5161080984703E-07
(PID.TID 0000.0001) %MON trcstat_ptracer96_max        =   5.9742769226432E-03
(PID.TID 0000.0001) %MON trcstat_ptracer96_min        =   1.1597600484137E-11
(PID.TID 0000.0001) %MON trcstat_ptracer96_mean       =   4.0995388005239E-06
(PID.TID 0000.0001) %MON trcstat_ptracer96_sd         =   4.2876349365146E-05
(PID.TID 0000.0001) %MON trcstat_ptracer96_del2       =   6.5161080984703E-07
(PID.TID 0000.0001) %MON trcstat_ptracer97_max        =   5.9742769226432E-03
(PID.TID 0000.0001) %MON trcstat_ptracer97_min        =   1.1597600484137E-11
(PID.TID 0000.0001) %MON trcstat_ptracer97_mean       =   4.0995388005239E-06
(PID.TID 0000.0001) %MON trcstat_ptracer97_sd         =   4.2876349365146E-05
(PID.TID 0000.0001) %MON trcstat_ptracer97_del2       =   6.5161080984703E-07
(PID.TID 0000.0001) %MON trcstat_ptracer98_max        =   5.9742769226432E-03
(PID.TID 0000.0001) %MON trcstat_ptracer98_min        =   1.1597600484137E-11
(PID.TID 0000.0001) %MON trcstat_ptracer98_mean       =   4.0995388005239E-06
(PID.TID 0000.0001) %MON trcstat_ptracer98_sd         =   4.2876349365146E-05
(PID.TID 0000.0001) %MON trcstat_ptracer98_del2       =   6.5161080984703E-07
(PID.TID 0000.0001) %MON trcstat_ptracer99_max        =   5.9742769226432E-03
(PID.TID 0000.0001) %MON trcstat_ptracer99_min        =   1.1597600484137E-11
(PID.TID 0000.0001) %MON trcstat_ptracer99_mean       =   4.0995388005239E-06
(PID.TID 0000.0001) %MON trcstat_ptracer99_sd         =   4.2876349365146E-05
(PID.TID 0000.0001) %MON trcstat_ptracer99_del2       =   6.5161080984703E-07
(PID.TID 0000.0001) // =======================================================
(PID.TID 0000.0001) // End MONITOR ptracers field statistics
(PID.TID 0000.0001) // =======================================================
 EXTERNAL_FIELDS_LOAD, it=   5644800 : Reading new data, i0,i1=   12    1 (prev=   12    0 )
(PID.TID 0000.0001)  MDS_READ_FIELD: opening global file: ../input/input_ocmip/tren_taux.bin
(PID.TID 0000.0001)  MDS_READ_FIELD: opening global file: ../input/input_ocmip/tren_taux.bin
(PID.TID 0000.0001)  MDS_READ_FIELD: opening global file: ../input/input_ocmip/tren_tauy.bin
(PID.TID 0000.0001)  MDS_READ_FIELD: opening global file: ../input/input_ocmip/tren_tauy.bin
(PID.TID 0000.0001)  MDS_READ_FIELD: opening global file: ../input/input_ocmip/shi_qnet.bin
(PID.TID 0000.0001)  MDS_READ_FIELD: opening global file: ../input/input_ocmip/shi_qnet.bin
(PID.TID 0000.0001)  MDS_READ_FIELD: opening global file: ../input/input_ocmip/shi_empmr_year.bin
(PID.TID 0000.0001)  MDS_READ_FIELD: opening global file: ../input/input_ocmip/shi_empmr_year.bin
(PID.TID 0000.0001)  MDS_READ_FIELD: opening global file: ../input/input_ocmip/lev_monthly_temp.bin
(PID.TID 0000.0001)  MDS_READ_FIELD: opening global file: ../input/input_ocmip/lev_monthly_temp.bin
(PID.TID 0000.0001)  MDS_READ_FIELD: opening global file: ../input/input_ocmip/lev_monthly_salt.bin
(PID.TID 0000.0001)  MDS_READ_FIELD: opening global file: ../input/input_ocmip/lev_monthly_salt.bin
(PID.TID 0000.0001) S/R DARWIN_FIELDS_LOAD: Reading forcing data  2.438553600000E+11    5644800
(PID.TID 0000.0001)  MDS_READ_FIELD: opening global file: ../input/input_ocmip/fice.bin
(PID.TID 0000.0001)  MDS_READ_FIELD: opening global file: ../input/input_ocmip/fice.bin
(PID.TID 0000.0001)  MDS_READ_FIELD: opening global file: ../input/input_ocmip/mah_flux_smooth.bin
(PID.TID 0000.0001)  MDS_READ_FIELD: opening global file: ../input/input_ocmip/mah_flux_smooth.bin
(PID.TID 0000.0001)  MDS_READ_FIELD: opening global file: ../input/input_ocmip/par_ocmip.bin_mth-2d.bin
(PID.TID 0000.0001)  MDS_READ_FIELD: opening global file: ../input/input_ocmip/par_ocmip.bin_mth-2d.bin
(PID.TID 0000.0001) SOLVE_FOR_PRESSURE: putPmEinXvector =    F
 cg2d: Sum(rhs),rhsMax =  -6.05368342121437E-07  7.54400175964654E+00
(PID.TID 0000.0001)                    cg2d_init_res =    1.59137915320038E-02
(PID.TID 0000.0001)                       cg2d_iters =    22
(PID.TID 0000.0001)                         cg2d_res =    7.51189066202892E-14
(PID.TID 0000.0001) // =======================================================
(PID.TID 0000.0001) // Begin MONITOR dynamic field statistics
(PID.TID 0000.0001) // =======================================================
(PID.TID 0000.0001) %MON time_tsnumber                =               5644801
(PID.TID 0000.0001) %MON time_secondsf                =   2.4385540320000E+11
(PID.TID 0000.0001) %MON dynstat_eta_max              =   9.3711923053631E-01
(PID.TID 0000.0001) %MON dynstat_eta_min              =  -1.7305068608987E+00
(PID.TID 0000.0001) %MON dynstat_eta_mean             =   1.6246257487270E-10
(PID.TID 0000.0001) %MON dynstat_eta_sd               =   6.5174294624011E-01
(PID.TID 0000.0001) %MON dynstat_eta_del2             =   9.2916548180735E-04
(PID.TID 0000.0001) %MON dynstat_uvel_max             =   1.5513369191489E-01
(PID.TID 0000.0001) %MON dynstat_uvel_min             =  -1.8453487673595E-01
(PID.TID 0000.0001) %MON dynstat_uvel_mean            =   2.9501853655048E-03
(PID.TID 0000.0001) %MON dynstat_uvel_sd              =   1.3888245927797E-02
(PID.TID 0000.0001) %MON dynstat_uvel_del2            =   3.8115539865671E-05
(PID.TID 0000.0001) %MON dynstat_vvel_max             =   1.1196082331802E-01
(PID.TID 0000.0001) %MON dynstat_vvel_min             =  -1.5166835089546E-01
(PID.TID 0000.0001) %MON dynstat_vvel_mean            =  -1.9221357240847E-04
(PID.TID 0000.0001) %MON dynstat_vvel_sd              =   6.3571349841720E-03
(PID.TID 0000.0001) %MON dynstat_vvel_del2            =   2.6613086542045E-05
(PID.TID 0000.0001) %MON dynstat_wvel_max             =   4.3063427626980E-05
(PID.TID 0000.0001) %MON dynstat_wvel_min             =  -6.4970094182436E-05
(PID.TID 0000.0001) %MON dynstat_wvel_mean            =  -7.3905911684752E-23
(PID.TID 0000.0001) %MON dynstat_wvel_sd              =   1.9039109380105E-06
(PID.TID 0000.0001) %MON dynstat_wvel_del2            =   1.3084115229147E-08
(PID.TID 0000.0001) %MON dynstat_theta_max            =   2.9953784819706E+01
(PID.TID 0000.0001) %MON dynstat_theta_min            =  -2.1379251179879E+00
(PID.TID 0000.0001) %MON dynstat_theta_mean           =   3.7551449719968E+00
(PID.TID 0000.0001) %MON dynstat_theta_sd             =   5.1497928609322E+00
(PID.TID 0000.0001) %MON dynstat_theta_del2           =   2.2450162450493E-03
(PID.TID 0000.0001) %MON dynstat_salt_max             =   3.7553833793841E+01
(PID.TID 0000.0001) %MON dynstat_salt_min             =   3.1355599749521E+01
(PID.TID 0000.0001) %MON dynstat_salt_mean            =   3.4543282692406E+01
(PID.TID 0000.0001) %MON dynstat_salt_sd              =   3.5868437918066E-01
(PID.TID 0000.0001) %MON dynstat_salt_del2            =   3.8099260787749E-04
(PID.TID 0000.0001) %MON forcing_qnet_max             =   4.5173381042480E+02
(PID.TID 0000.0001) %MON forcing_qnet_min             =  -2.1320401000977E+02
(PID.TID 0000.0001) %MON forcing_qnet_mean            =  -1.7634591469579E+01
(PID.TID 0000.0001) %MON forcing_qnet_sd              =   1.1599881404185E+02
(PID.TID 0000.0001) %MON forcing_qnet_del2            =   2.7302567191349E-01
(PID.TID 0000.0001) %MON forcing_qsw_max              =   0.0000000000000E+00
(PID.TID 0000.0001) %MON forcing_qsw_min              =   0.0000000000000E+00
(PID.TID 0000.0001) %MON forcing_qsw_mean             =   0.0000000000000E+00
(PID.TID 0000.0001) %MON forcing_qsw_sd               =   0.0000000000000E+00
(PID.TID 0000.0001) %MON forcing_qsw_del2             =   0.0000000000000E+00
(PID.TID 0000.0001) %MON forcing_empmr_max            =   6.9206222512719E-05
(PID.TID 0000.0001) %MON forcing_empmr_min            =  -1.5544422772962E-04
(PID.TID 0000.0001) %MON forcing_empmr_mean           =   1.2460352661810E-14
(PID.TID 0000.0001) %MON forcing_empmr_sd             =   2.4700019777611E-05
(PID.TID 0000.0001) %MON forcing_empmr_del2           =   1.1591736879229E-07
(PID.TID 0000.0001) %MON forcing_fu_max               =   2.6936699450016E-01
(PID.TID 0000.0001) %MON forcing_fu_min               =  -1.5727265179157E-01
(PID.TID 0000.0001) %MON forcing_fu_mean              =   1.7831973356732E-02
(PID.TID 0000.0001) %MON forcing_fu_sd                =   8.9620299147480E-02
(PID.TID 0000.0001) %MON forcing_fu_del2              =   2.4782395373364E-04
(PID.TID 0000.0001) %MON forcing_fv_max               =   1.9744335860014E-01
(PID.TID 0000.0001) %MON forcing_fv_min               =  -1.5944199264050E-01
(PID.TID 0000.0001) %MON forcing_fv_mean              =  -6.4503818001955E-03
(PID.TID 0000.0001) %MON forcing_fv_sd                =   4.4276273939354E-02
(PID.TID 0000.0001) %MON forcing_fv_del2              =   1.7990220506047E-04
(PID.TID 0000.0001) %MON advcfl_uvel_max              =   4.0061637225571E-02
(PID.TID 0000.0001) %MON advcfl_vvel_max              =   2.0954117767883E-02
(PID.TID 0000.0001) %MON advcfl_wvel_max              =   1.3147981225897E-02
(PID.TID 0000.0001) %MON advcfl_W_hf_max              =   1.5495835016236E-02
(PID.TID 0000.0001) %MON pe_b_mean                    =   5.8633886579122E-04
(PID.TID 0000.0001) %MON ke_max                       =   1.7885149972186E-02
(PID.TID 0000.0001) %MON ke_mean                      =   1.1150737021518E-04
(PID.TID 0000.0001) %MON ke_vol                       =   1.1739855207380E+18
(PID.TID 0000.0001) %MON vort_r_min                   =  -5.5446608387696E-07
(PID.TID 0000.0001) %MON vort_r_max                   =   6.2111605841997E-07
(PID.TID 0000.0001) %MON vort_a_mean                  =  -2.5798915502265E-05
(PID.TID 0000.0001) %MON vort_a_sd                    =   7.3558772869366E-05
(PID.TID 0000.0001) %MON vort_p_mean                  =  -3.0020960747216E-05
(PID.TID 0000.0001) %MON vort_p_sd                    =   9.8090578046796E-05
(PID.TID 0000.0001) %MON surfExpan_theta_mean         =  -2.9532654695925E-07
(PID.TID 0000.0001) %MON surfExpan_salt_mean          =   2.3754721100881E-08
(PID.TID 0000.0001) // =======================================================
(PID.TID 0000.0001) // End MONITOR dynamic field statistics
(PID.TID 0000.0001) // =======================================================
(PID.TID 0000.0001) // =======================================================
(PID.TID 0000.0001) // Begin MONITOR ptracer field statistics
(PID.TID 0000.0001) // =======================================================
(PID.TID 0000.0001) %MON trcstat_ptracer01_max        =   3.4906181110433E+00
(PID.TID 0000.0001) %MON trcstat_ptracer01_min        =   4.7204362980926E-02
(PID.TID 0000.0001) %MON trcstat_ptracer01_mean       =   2.1106225935907E+00
(PID.TID 0000.0001) %MON trcstat_ptracer01_sd         =   6.4915303224786E-01
(PID.TID 0000.0001) %MON trcstat_ptracer01_del2       =   3.7298675922620E-04
(PID.TID 0000.0001) %MON trcstat_ptracer02_max        =   5.5517122774793E+01
(PID.TID 0000.0001) %MON trcstat_ptracer02_min        =   1.8266849855878E-04
(PID.TID 0000.0001) %MON trcstat_ptracer02_mean       =   3.0320057207085E+01
(PID.TID 0000.0001) %MON trcstat_ptracer02_sd         =   9.3074394682923E+00
(PID.TID 0000.0001) %MON trcstat_ptracer02_del2       =   7.2116437518929E-03
(PID.TID 0000.0001) %MON trcstat_ptracer03_max        =   1.3877660184948E-03
(PID.TID 0000.0001) %MON trcstat_ptracer03_min        =   4.1314640953217E-06
(PID.TID 0000.0001) %MON trcstat_ptracer03_mean       =   3.2965723567454E-04
(PID.TID 0000.0001) %MON trcstat_ptracer03_sd         =   2.1710162719365E-04
(PID.TID 0000.0001) %MON trcstat_ptracer03_del2       =   2.1261204515101E-07
(PID.TID 0000.0001) %MON trcstat_ptracer04_max        =   1.8844211582236E+02
(PID.TID 0000.0001) %MON trcstat_ptracer04_min        =   4.3433892017869E-01
(PID.TID 0000.0001) %MON trcstat_ptracer04_mean       =   8.3739598711587E+01
(PID.TID 0000.0001) %MON trcstat_ptracer04_sd         =   4.9672648618542E+01
(PID.TID 0000.0001) %MON trcstat_ptracer04_del2       =   1.6834672645420E-02
(PID.TID 0000.0001) %MON trcstat_ptracer05_max        =   1.2800441038169E-01
(PID.TID 0000.0001) %MON trcstat_ptracer05_min        =  -1.6522663275333E-04
(PID.TID 0000.0001) %MON trcstat_ptracer05_mean       =   1.0761219590214E-03
(PID.TID 0000.0001) %MON trcstat_ptracer05_sd         =   6.8417918392571E-03
(PID.TID 0000.0001) %MON trcstat_ptracer05_del2       =   2.1038486169864E-05
(PID.TID 0000.0001) %MON trcstat_ptracer06_max        =   2.0480705661070E+00
(PID.TID 0000.0001) %MON trcstat_ptracer06_min        =  -2.6436261240533E-03
(PID.TID 0000.0001) %MON trcstat_ptracer06_mean       =   1.7217951344343E-02
(PID.TID 0000.0001) %MON trcstat_ptracer06_sd         =   1.0946866942811E-01
(PID.TID 0000.0001) %MON trcstat_ptracer06_del2       =   3.3661577871783E-04
(PID.TID 0000.0001) %MON trcstat_ptracer07_max        =   7.3349667594996E-05
(PID.TID 0000.0001) %MON trcstat_ptracer07_min        =  -1.4180855386585E-07
(PID.TID 0000.0001) %MON trcstat_ptracer07_mean       =   2.9663209585894E-07
(PID.TID 0000.0001) %MON trcstat_ptracer07_sd         =   2.0899147074791E-06
(PID.TID 0000.0001) %MON trcstat_ptracer07_del2       =   7.7226592444167E-09
(PID.TID 0000.0001) %MON trcstat_ptracer08_max        =   6.1151709702457E-02
(PID.TID 0000.0001) %MON trcstat_ptracer08_min        =   1.1122161106589E-10
(PID.TID 0000.0001) %MON trcstat_ptracer08_mean       =   3.9916475568255E-05
(PID.TID 0000.0001) %MON trcstat_ptracer08_sd         =   4.2195043439014E-04
(PID.TID 0000.0001) %MON trcstat_ptracer08_del2       =   6.7001676635904E-06
(PID.TID 0000.0001) %MON trcstat_ptracer09_max        =   9.7842735523932E-01
(PID.TID 0000.0001) %MON trcstat_ptracer09_min        =   1.7795457770543E-09
(PID.TID 0000.0001) %MON trcstat_ptracer09_mean       =   6.3866360909208E-04
(PID.TID 0000.0001) %MON trcstat_ptracer09_sd         =   6.7512069502422E-03
(PID.TID 0000.0001) %MON trcstat_ptracer09_del2       =   1.0720268261745E-04
(PID.TID 0000.0001) %MON trcstat_ptracer10_max        =   1.4555785920967E-04
(PID.TID 0000.0001) %MON trcstat_ptracer10_min        =   2.7805403182873E-13
(PID.TID 0000.0001) %MON trcstat_ptracer10_mean       =   9.8879089805908E-08
(PID.TID 0000.0001) %MON trcstat_ptracer10_sd         =   1.0290827930160E-06
(PID.TID 0000.0001) %MON trcstat_ptracer10_del2       =   1.6058823478368E-08
(PID.TID 0000.0001) %MON trcstat_ptracer11_max        =   4.5197919642966E-01
(PID.TID 0000.0001) %MON trcstat_ptracer11_min        =   8.8977288809733E-10
(PID.TID 0000.0001) %MON trcstat_ptracer11_mean       =   3.1469440533236E-04
(PID.TID 0000.0001) %MON trcstat_ptracer11_sd         =   3.2447443968612E-03
(PID.TID 0000.0001) %MON trcstat_ptracer11_del2       =   5.0088394731120E-05
(PID.TID 0000.0001) %MON trcstat_ptracer12_max        =   6.1752478230937E-02
(PID.TID 0000.0001) %MON trcstat_ptracer12_min        =   1.1122161106293E-10
(PID.TID 0000.0001) %MON trcstat_ptracer12_mean       =   3.9942979127575E-05
(PID.TID 0000.0001) %MON trcstat_ptracer12_sd         =   4.2325923562219E-04
(PID.TID 0000.0001) %MON trcstat_ptracer12_del2       =   6.7476970785327E-06
(PID.TID 0000.0001) %MON trcstat_ptracer13_max        =   9.8803965169499E-01
(PID.TID 0000.0001) %MON trcstat_ptracer13_min        =   1.7795457770069E-09
(PID.TID 0000.0001) %MON trcstat_ptracer13_mean       =   6.3908766604119E-04
(PID.TID 0000.0001) %MON trcstat_ptracer13_sd         =   6.7721477699550E-03
(PID.TID 0000.0001) %MON trcstat_ptracer13_del2       =   1.0796315325652E-04
(PID.TID 0000.0001) %MON trcstat_ptracer14_max        =   1.4615862773815E-04
(PID.TID 0000.0001) %MON trcstat_ptracer14_min        =   2.7805403182577E-13
(PID.TID 0000.0001) %MON trcstat_ptracer14_mean       =   9.8905593365227E-08
(PID.TID 0000.0001) %MON trcstat_ptracer14_sd         =   1.0303733437992E-06
(PID.TID 0000.0001) %MON trcstat_ptracer14_del2       =   1.6105985340694E-08
(PID.TID 0000.0001) %MON trcstat_ptracer15_max        =   4.7590409996617E-01
(PID.TID 0000.0001) %MON trcstat_ptracer15_min        =   8.8977288832624E-10
(PID.TID 0000.0001) %MON trcstat_ptracer15_mean       =   3.1744583336747E-04
(PID.TID 0000.0001) %MON trcstat_ptracer15_sd         =   3.3246990559665E-03
(PID.TID 0000.0001) %MON trcstat_ptracer15_del2       =   5.2297315266429E-05
(PID.TID 0000.0001) %MON trcstat_ptracer16_max        =   1.8440301346861E-01
(PID.TID 0000.0001) %MON trcstat_ptracer16_min        =   8.3644916119987E-08
(PID.TID 0000.0001) %MON trcstat_ptracer16_mean       =   1.6841391220712E-03
(PID.TID 0000.0001) %MON trcstat_ptracer16_sd         =   3.6453954260119E-03
(PID.TID 0000.0001) %MON trcstat_ptracer16_del2       =   1.6429723262095E-05
(PID.TID 0000.0001) %MON trcstat_ptracer17_max        =   2.9504482154977E+00
(PID.TID 0000.0001) %MON trcstat_ptracer17_min        =   1.3383186579198E-06
(PID.TID 0000.0001) %MON trcstat_ptracer17_mean       =   2.6946225953139E-02
(PID.TID 0000.0001) %MON trcstat_ptracer17_sd         =   5.8326326816190E-02
(PID.TID 0000.0001) %MON trcstat_ptracer17_del2       =   2.6287557219352E-04
(PID.TID 0000.0001) %MON trcstat_ptracer18_max        =   1.9128938052838E-04
(PID.TID 0000.0001) %MON trcstat_ptracer18_min        =   1.3449129220720E-11
(PID.TID 0000.0001) %MON trcstat_ptracer18_mean       =   7.4674453604999E-07
(PID.TID 0000.0001) %MON trcstat_ptracer18_sd         =   2.3863588145390E-06
(PID.TID 0000.0001) %MON trcstat_ptracer18_del2       =   1.2215009623982E-08
(PID.TID 0000.0001) %MON trcstat_ptracer19_max        =   4.0321174425899E+01
(PID.TID 0000.0001) %MON trcstat_ptracer19_min        =  -1.3242131890412E-01
(PID.TID 0000.0001) %MON trcstat_ptracer19_mean       =   1.5141606954705E-01
(PID.TID 0000.0001) %MON trcstat_ptracer19_sd         =   4.0999404503902E-01
(PID.TID 0000.0001) %MON trcstat_ptracer19_del2       =   2.1477691785484E-03
(PID.TID 0000.0001) %MON trcstat_ptracer20_max        =   4.4164375145870E-01
(PID.TID 0000.0001) %MON trcstat_ptracer20_min        =   2.7080944100752E-07
(PID.TID 0000.0001) %MON trcstat_ptracer20_mean       =   5.3989695695789E-03
(PID.TID 0000.0001) %MON trcstat_ptracer20_sd         =   2.2308187681533E-02
(PID.TID 0000.0001) %MON trcstat_ptracer20_del2       =   4.5946010740203E-05
(PID.TID 0000.0001) %MON trcstat_ptracer21_max        =   2.4283728670570E+00
(PID.TID 0000.0001) %MON trcstat_ptracer21_min        =   2.7531571203028E-06
(PID.TID 0000.0001) %MON trcstat_ptracer21_mean       =   3.0288293680758E-02
(PID.TID 0000.0001) %MON trcstat_ptracer21_sd         =   8.9380743185476E-02
(PID.TID 0000.0001) %MON trcstat_ptracer21_del2       =   1.1706311981414E-04
(PID.TID 0000.0001) %MON trcstat_ptracer22_max        =   5.2581235667650E-03
(PID.TID 0000.0001) %MON trcstat_ptracer22_min        =   1.1041281823447E-11
(PID.TID 0000.0001) %MON trcstat_ptracer22_mean       =   3.9588151633844E-06
(PID.TID 0000.0001) %MON trcstat_ptracer22_sd         =   3.9895968120366E-05
(PID.TID 0000.0001) %MON trcstat_ptracer22_del2       =   5.9266083883101E-07
(PID.TID 0000.0001) %MON trcstat_ptracer23_max        =   5.3087589696356E-03
(PID.TID 0000.0001) %MON trcstat_ptracer23_min        =   1.1030275250710E-11
(PID.TID 0000.0001) %MON trcstat_ptracer23_mean       =   3.9927003396417E-06
(PID.TID 0000.0001) %MON trcstat_ptracer23_sd         =   4.0300598192802E-05
(PID.TID 0000.0001) %MON trcstat_ptracer23_del2       =   5.9693698123958E-07
(PID.TID 0000.0001) %MON trcstat_ptracer24_max        =   5.3451433258064E-03
(PID.TID 0000.0001) %MON trcstat_ptracer24_min        =   1.1041281824336E-11
(PID.TID 0000.0001) %MON trcstat_ptracer24_mean       =   3.9659142209935E-06
(PID.TID 0000.0001) %MON trcstat_ptracer24_sd         =   4.0105697630810E-05
(PID.TID 0000.0001) %MON trcstat_ptracer24_del2       =   5.9990642251474E-07
(PID.TID 0000.0001) %MON trcstat_ptracer25_max        =   5.3087589696356E-03
(PID.TID 0000.0001) %MON trcstat_ptracer25_min        =   1.1030275250710E-11
(PID.TID 0000.0001) %MON trcstat_ptracer25_mean       =   3.9280174616542E-06
(PID.TID 0000.0001) %MON trcstat_ptracer25_sd         =   3.9785348916526E-05
(PID.TID 0000.0001) %MON trcstat_ptracer25_del2       =   5.9598664165792E-07
(PID.TID 0000.0001) %MON trcstat_ptracer26_max        =   5.3087589696356E-03
(PID.TID 0000.0001) %MON trcstat_ptracer26_min        =   1.1030275250710E-11
(PID.TID 0000.0001) %MON trcstat_ptracer26_mean       =   4.1796543363737E-06
(PID.TID 0000.0001) %MON trcstat_ptracer26_sd         =   4.2027061105370E-05
(PID.TID 0000.0001) %MON trcstat_ptracer26_del2       =   6.0383421692306E-07
(PID.TID 0000.0001) %MON trcstat_ptracer27_max        =   5.3087589696356E-03
(PID.TID 0000.0001) %MON trcstat_ptracer27_min        =   1.1030275250710E-11
(PID.TID 0000.0001) %MON trcstat_ptracer27_mean       =   4.0181516422831E-06
(PID.TID 0000.0001) %MON trcstat_ptracer27_sd         =   4.0375724052543E-05
(PID.TID 0000.0001) %MON trcstat_ptracer27_del2       =   5.9815374690885E-07
(PID.TID 0000.0001) %MON trcstat_ptracer28_max        =   5.3451433258064E-03
(PID.TID 0000.0001) %MON trcstat_ptracer28_min        =   1.1041281824336E-11
(PID.TID 0000.0001) %MON trcstat_ptracer28_mean       =   4.1541361910536E-06
(PID.TID 0000.0001) %MON trcstat_ptracer28_sd         =   4.1654993333259E-05
(PID.TID 0000.0001) %MON trcstat_ptracer28_del2       =   6.0383379629154E-07
(PID.TID 0000.0001) %MON trcstat_ptracer29_max        =   5.3087589696356E-03
(PID.TID 0000.0001) %MON trcstat_ptracer29_min        =   1.1030275250710E-11
(PID.TID 0000.0001) %MON trcstat_ptracer29_mean       =   3.9619766901720E-06
(PID.TID 0000.0001) %MON trcstat_ptracer29_sd         =   4.0146856737583E-05
(PID.TID 0000.0001) %MON trcstat_ptracer29_del2       =   5.9763797719383E-07
(PID.TID 0000.0001) %MON trcstat_ptracer30_max        =   5.3087589696356E-03
(PID.TID 0000.0001) %MON trcstat_ptracer30_min        =   1.1030275250710E-11
(PID.TID 0000.0001) %MON trcstat_ptracer30_mean       =   3.9854948602718E-06
(PID.TID 0000.0001) %MON trcstat_ptracer30_sd         =   4.0256771799313E-05
(PID.TID 0000.0001) %MON trcstat_ptracer30_del2       =   5.9714141979990E-07
(PID.TID 0000.0001) %MON trcstat_ptracer31_max        =   5.2581235667650E-03
(PID.TID 0000.0001) %MON trcstat_ptracer31_min        =   1.1041281823447E-11
(PID.TID 0000.0001) %MON trcstat_ptracer31_mean       =   4.0168224229240E-06
(PID.TID 0000.0001) %MON trcstat_ptracer31_sd         =   4.0279292209702E-05
(PID.TID 0000.0001) %MON trcstat_ptracer31_del2       =   5.9271106063954E-07
(PID.TID 0000.0001) %MON trcstat_ptracer32_max        =   5.3087589696356E-03
(PID.TID 0000.0001) %MON trcstat_ptracer32_min        =   1.1030275250710E-11
(PID.TID 0000.0001) %MON trcstat_ptracer32_mean       =   4.1493996765945E-06
(PID.TID 0000.0001) %MON trcstat_ptracer32_sd         =   4.1973617798281E-05
(PID.TID 0000.0001) %MON trcstat_ptracer32_del2       =   6.0687110417835E-07
(PID.TID 0000.0001) %MON trcstat_ptracer33_max        =   5.3087589696356E-03
(PID.TID 0000.0001) %MON trcstat_ptracer33_min        =   1.1030275250710E-11
(PID.TID 0000.0001) %MON trcstat_ptracer33_mean       =   3.9802628681474E-06
(PID.TID 0000.0001) %MON trcstat_ptracer33_sd         =   4.0262958820300E-05
(PID.TID 0000.0001) %MON trcstat_ptracer33_del2       =   5.9834532757918E-07
(PID.TID 0000.0001) %MON trcstat_ptracer34_max        =   5.3087589696356E-03
(PID.TID 0000.0001) %MON trcstat_ptracer34_min        =   1.1030275250710E-11
(PID.TID 0000.0001) %MON trcstat_ptracer34_mean       =   3.9039750218279E-06
(PID.TID 0000.0001) %MON trcstat_ptracer34_sd         =   3.9596417219981E-05
(PID.TID 0000.0001) %MON trcstat_ptracer34_del2       =   5.9489074690818E-07
(PID.TID 0000.0001) %MON trcstat_ptracer35_max        =   5.3451433258064E-03
(PID.TID 0000.0001) %MON trcstat_ptracer35_min        =   1.1041281824336E-11
(PID.TID 0000.0001) %MON trcstat_ptracer35_mean       =   4.4004329407016E-06
(PID.TID 0000.0001) %MON trcstat_ptracer35_sd         =   4.2948536143179E-05
(PID.TID 0000.0001) %MON trcstat_ptracer35_del2       =   6.0296984054526E-07
(PID.TID 0000.0001) %MON trcstat_ptracer36_max        =   5.2581235667650E-03
(PID.TID 0000.0001) %MON trcstat_ptracer36_min        =   1.1041281823447E-11
(PID.TID 0000.0001) %MON trcstat_ptracer36_mean       =   4.2662009551927E-06
(PID.TID 0000.0001) %MON trcstat_ptracer36_sd         =   4.2043463755347E-05
(PID.TID 0000.0001) %MON trcstat_ptracer36_del2       =   5.9700934374591E-07
(PID.TID 0000.0001) %MON trcstat_ptracer37_max        =   5.3087589696356E-03
(PID.TID 0000.0001) %MON trcstat_ptracer37_min        =   1.1030275250710E-11
(PID.TID 0000.0001) %MON trcstat_ptracer37_mean       =   3.8789308916808E-06
(PID.TID 0000.0001) %MON trcstat_ptracer37_sd         =   3.9359798353418E-05
(PID.TID 0000.0001) %MON trcstat_ptracer37_del2       =   5.9376195978166E-07
(PID.TID 0000.0001) %MON trcstat_ptracer38_max        =   5.2581235667650E-03
(PID.TID 0000.0001) %MON trcstat_ptracer38_min        =   1.1041281823447E-11
(PID.TID 0000.0001) %MON trcstat_ptracer38_mean       =   4.4753003618793E-06
(PID.TID 0000.0001) %MON trcstat_ptracer38_sd         =   4.3817006207598E-05
(PID.TID 0000.0001) %MON trcstat_ptracer38_del2       =   6.0012952718933E-07
(PID.TID 0000.0001) %MON trcstat_ptracer39_max        =   5.2581235667650E-03
(PID.TID 0000.0001) %MON trcstat_ptracer39_min        =   1.1041281823447E-11
(PID.TID 0000.0001) %MON trcstat_ptracer39_mean       =   4.3686577077522E-06
(PID.TID 0000.0001) %MON trcstat_ptracer39_sd         =   4.3065977877763E-05
(PID.TID 0000.0001) %MON trcstat_ptracer39_del2       =   5.9980686042617E-07
(PID.TID 0000.0001) %MON trcstat_ptracer40_max        =   5.3087589696356E-03
(PID.TID 0000.0001) %MON trcstat_ptracer40_min        =   1.1030275250710E-11
(PID.TID 0000.0001) %MON trcstat_ptracer40_mean       =   4.1470174508961E-06
(PID.TID 0000.0001) %MON trcstat_ptracer40_sd         =   4.1767085129543E-05
(PID.TID 0000.0001) %MON trcstat_ptracer40_del2       =   6.0356590291150E-07
(PID.TID 0000.0001) %MON trcstat_ptracer41_max        =   5.3087589696356E-03
(PID.TID 0000.0001) %MON trcstat_ptracer41_min        =   1.1030275250710E-11
(PID.TID 0000.0001) %MON trcstat_ptracer41_mean       =   3.9373146098415E-06
(PID.TID 0000.0001) %MON trcstat_ptracer41_sd         =   3.9859383209412E-05
(PID.TID 0000.0001) %MON trcstat_ptracer41_del2       =   5.9686073434550E-07
(PID.TID 0000.0001) %MON trcstat_ptracer42_max        =   5.3087589696356E-03
(PID.TID 0000.0001) %MON trcstat_ptracer42_min        =   1.1030275250710E-11
(PID.TID 0000.0001) %MON trcstat_ptracer42_mean       =   3.8910306450533E-06
(PID.TID 0000.0001) %MON trcstat_ptracer42_sd         =   3.9489963994764E-05
(PID.TID 0000.0001) %MON trcstat_ptracer42_del2       =   5.9437121224912E-07
(PID.TID 0000.0001) %MON trcstat_ptracer43_max        =   5.2581235667650E-03
(PID.TID 0000.0001) %MON trcstat_ptracer43_min        =   1.1041281823447E-11
(PID.TID 0000.0001) %MON trcstat_ptracer43_mean       =   4.4365357643568E-06
(PID.TID 0000.0001) %MON trcstat_ptracer43_sd         =   4.3605338107122E-05
(PID.TID 0000.0001) %MON trcstat_ptracer43_del2       =   6.0089207283864E-07
(PID.TID 0000.0001) %MON trcstat_ptracer44_max        =   5.3087589696356E-03
(PID.TID 0000.0001) %MON trcstat_ptracer44_min        =   1.1030275250710E-11
(PID.TID 0000.0001) %MON trcstat_ptracer44_mean       =   3.9765965820146E-06
(PID.TID 0000.0001) %MON trcstat_ptracer44_sd         =   4.0187450128995E-05
(PID.TID 0000.0001) %MON trcstat_ptracer44_del2       =   5.9689075172491E-07
(PID.TID 0000.0001) %MON trcstat_ptracer45_max        =   5.3087589696356E-03
(PID.TID 0000.0001) %MON trcstat_ptracer45_min        =   1.1030275250710E-11
(PID.TID 0000.0001) %MON trcstat_ptracer45_mean       =   3.9745687264253E-06
(PID.TID 0000.0001) %MON trcstat_ptracer45_sd         =   4.0193422138590E-05
(PID.TID 0000.0001) %MON trcstat_ptracer45_del2       =   5.9793412424452E-07
(PID.TID 0000.0001) %MON trcstat_ptracer46_max        =   5.3087589696356E-03
(PID.TID 0000.0001) %MON trcstat_ptracer46_min        =   1.1030275250710E-11
(PID.TID 0000.0001) %MON trcstat_ptracer46_mean       =   3.9651191474021E-06
(PID.TID 0000.0001) %MON trcstat_ptracer46_sd         =   4.0177874523134E-05
(PID.TID 0000.0001) %MON trcstat_ptracer46_del2       =   5.9775961628176E-07
(PID.TID 0000.0001) %MON trcstat_ptracer47_max        =   5.3087589696356E-03
(PID.TID 0000.0001) %MON trcstat_ptracer47_min        =   1.1030275250710E-11
(PID.TID 0000.0001) %MON trcstat_ptracer47_mean       =   4.2949013958496E-06
(PID.TID 0000.0001) %MON trcstat_ptracer47_sd         =   4.2546941028256E-05
(PID.TID 0000.0001) %MON trcstat_ptracer47_del2       =   6.0251238069214E-07
(PID.TID 0000.0001) %MON trcstat_ptracer48_max        =   5.2581235667650E-03
(PID.TID 0000.0001) %MON trcstat_ptracer48_min        =   1.1041281823447E-11
(PID.TID 0000.0001) %MON trcstat_ptracer48_mean       =   3.9222489677343E-06
(PID.TID 0000.0001) %MON trcstat_ptracer48_sd         =   3.9544591029004E-05
(PID.TID 0000.0001) %MON trcstat_ptracer48_del2       =   5.9086243851590E-07
(PID.TID 0000.0001) %MON trcstat_ptracer49_max        =   5.2581235667650E-03
(PID.TID 0000.0001) %MON trcstat_ptracer49_min        =   1.1041281823447E-11
(PID.TID 0000.0001) %MON trcstat_ptracer49_mean       =   4.1123045432655E-06
(PID.TID 0000.0001) %MON trcstat_ptracer49_sd         =   4.0754341153298E-05
(PID.TID 0000.0001) %MON trcstat_ptracer49_del2       =   5.9183195884441E-07
(PID.TID 0000.0001) %MON trcstat_ptracer50_max        =   5.3087589696356E-03
(PID.TID 0000.0001) %MON trcstat_ptracer50_min        =   1.1030275250710E-11
(PID.TID 0000.0001) %MON trcstat_ptracer50_mean       =   3.9148757535648E-06
(PID.TID 0000.0001) %MON trcstat_ptracer50_sd         =   3.9679763698398E-05
(PID.TID 0000.0001) %MON trcstat_ptracer50_del2       =   5.9550472724923E-07
(PID.TID 0000.0001) %MON trcstat_ptracer51_max        =   5.3087589696356E-03
(PID.TID 0000.0001) %MON trcstat_ptracer51_min        =   1.1030275250710E-11
(PID.TID 0000.0001) %MON trcstat_ptracer51_mean       =   3.9464459900108E-06
(PID.TID 0000.0001) %MON trcstat_ptracer51_sd         =   3.9914284213547E-05
(PID.TID 0000.0001) %MON trcstat_ptracer51_del2       =   5.9706112447331E-07
(PID.TID 0000.0001) %MON trcstat_ptracer52_max        =   5.3451433258064E-03
(PID.TID 0000.0001) %MON trcstat_ptracer52_min        =   1.1041281824336E-11
(PID.TID 0000.0001) %MON trcstat_ptracer52_mean       =   4.0788115041307E-06
(PID.TID 0000.0001) %MON trcstat_ptracer52_sd         =   4.0922184926480E-05
(PID.TID 0000.0001) %MON trcstat_ptracer52_del2       =   6.0078991153085E-07
(PID.TID 0000.0001) %MON trcstat_ptracer53_max        =   5.3087589696356E-03
(PID.TID 0000.0001) %MON trcstat_ptracer53_min        =   1.1030275250710E-11
(PID.TID 0000.0001) %MON trcstat_ptracer53_mean       =   4.0757085853482E-06
(PID.TID 0000.0001) %MON trcstat_ptracer53_sd         =   4.1223970485423E-05
(PID.TID 0000.0001) %MON trcstat_ptracer53_del2       =   6.0496172205578E-07
(PID.TID 0000.0001) %MON trcstat_ptracer54_max        =   5.3087589696356E-03
(PID.TID 0000.0001) %MON trcstat_ptracer54_min        =   1.1030275250710E-11
(PID.TID 0000.0001) %MON trcstat_ptracer54_mean       =   3.9647809757002E-06
(PID.TID 0000.0001) %MON trcstat_ptracer54_sd         =   4.0170851302139E-05
(PID.TID 0000.0001) %MON trcstat_ptracer54_del2       =   5.9732864738505E-07
(PID.TID 0000.0001) %MON trcstat_ptracer55_max        =   5.2581235667650E-03
(PID.TID 0000.0001) %MON trcstat_ptracer55_min        =   1.1041281823447E-11
(PID.TID 0000.0001) %MON trcstat_ptracer55_mean       =   4.0822823777750E-06
(PID.TID 0000.0001) %MON trcstat_ptracer55_sd         =   4.0315918159583E-05
(PID.TID 0000.0001) %MON trcstat_ptracer55_del2       =   5.9048998649746E-07
(PID.TID 0000.0001) %MON trcstat_ptracer56_max        =   5.2581235667650E-03
(PID.TID 0000.0001) %MON trcstat_ptracer56_min        =   1.1041281823447E-11
(PID.TID 0000.0001) %MON trcstat_ptracer56_mean       =   4.2878802942841E-06
(PID.TID 0000.0001) %MON trcstat_ptracer56_sd         =   4.2494843322669E-05
(PID.TID 0000.0001) %MON trcstat_ptracer56_del2       =   5.9827764749228E-07
(PID.TID 0000.0001) %MON trcstat_ptracer57_max        =   5.3087589696356E-03
(PID.TID 0000.0001) %MON trcstat_ptracer57_min        =   1.1030275250710E-11
(PID.TID 0000.0001) %MON trcstat_ptracer57_mean       =   4.2171923949854E-06
(PID.TID 0000.0001) %MON trcstat_ptracer57_sd         =   4.2098912945092E-05
(PID.TID 0000.0001) %MON trcstat_ptracer57_del2       =   6.0166437473000E-07
(PID.TID 0000.0001) %MON trcstat_ptracer58_max        =   5.3087589696356E-03
(PID.TID 0000.0001) %MON trcstat_ptracer58_min        =   1.1030275250710E-11
(PID.TID 0000.0001) %MON trcstat_ptracer58_mean       =   3.9538910206697E-06
(PID.TID 0000.0001) %MON trcstat_ptracer58_sd         =   4.0109806007434E-05
(PID.TID 0000.0001) %MON trcstat_ptracer58_del2       =   5.9760745922528E-07
(PID.TID 0000.0001) %MON trcstat_ptracer59_max        =   5.3451433258064E-03
(PID.TID 0000.0001) %MON trcstat_ptracer59_min        =   1.1041281824336E-11
(PID.TID 0000.0001) %MON trcstat_ptracer59_mean       =   4.3434152703318E-06
(PID.TID 0000.0001) %MON trcstat_ptracer59_sd         =   4.2740485279886E-05
(PID.TID 0000.0001) %MON trcstat_ptracer59_del2       =   6.0415145334008E-07
(PID.TID 0000.0001) %MON trcstat_ptracer60_max        =   5.3451433258064E-03
(PID.TID 0000.0001) %MON trcstat_ptracer60_min        =   1.1041281824336E-11
(PID.TID 0000.0001) %MON trcstat_ptracer60_mean       =   4.1829969032040E-06
(PID.TID 0000.0001) %MON trcstat_ptracer60_sd         =   4.1945347936239E-05
(PID.TID 0000.0001) %MON trcstat_ptracer60_del2       =   6.0542190527678E-07
(PID.TID 0000.0001) %MON trcstat_ptracer61_max        =   5.2581235667650E-03
(PID.TID 0000.0001) %MON trcstat_ptracer61_min        =   1.1041281823447E-11
(PID.TID 0000.0001) %MON trcstat_ptracer61_mean       =   4.0826942195407E-06
(PID.TID 0000.0001) %MON trcstat_ptracer61_sd         =   4.0692829294745E-05
(PID.TID 0000.0001) %MON trcstat_ptracer61_del2       =   5.9245821180050E-07
(PID.TID 0000.0001) %MON trcstat_ptracer62_max        =   5.2581235667650E-03
(PID.TID 0000.0001) %MON trcstat_ptracer62_min        =   1.1041281823447E-11
(PID.TID 0000.0001) %MON trcstat_ptracer62_mean       =   4.0390496541581E-06
(PID.TID 0000.0001) %MON trcstat_ptracer62_sd         =   4.0626821983760E-05
(PID.TID 0000.0001) %MON trcstat_ptracer62_del2       =   5.9619785721077E-07
(PID.TID 0000.0001) %MON trcstat_ptracer63_max        =   5.2581235667650E-03
(PID.TID 0000.0001) %MON trcstat_ptracer63_min        =   1.1041281823447E-11
(PID.TID 0000.0001) %MON trcstat_ptracer63_mean       =   4.3907069679642E-06
(PID.TID 0000.0001) %MON trcstat_ptracer63_sd         =   4.2970575951005E-05
(PID.TID 0000.0001) %MON trcstat_ptracer63_del2       =   5.9720557245415E-07
(PID.TID 0000.0001) %MON trcstat_ptracer64_max        =   5.3451433258064E-03
(PID.TID 0000.0001) %MON trcstat_ptracer64_min        =   1.1041281824336E-11
(PID.TID 0000.0001) %MON trcstat_ptracer64_mean       =   4.3319020160911E-06
(PID.TID 0000.0001) %MON trcstat_ptracer64_sd         =   4.2729969374282E-05
(PID.TID 0000.0001) %MON trcstat_ptracer64_del2       =   6.0550948437831E-07
(PID.TID 0000.0001) %MON trcstat_ptracer65_max        =   5.3451433258064E-03
(PID.TID 0000.0001) %MON trcstat_ptracer65_min        =   1.1041281824336E-11
(PID.TID 0000.0001) %MON trcstat_ptracer65_mean       =   4.1149297885561E-06
(PID.TID 0000.0001) %MON trcstat_ptracer65_sd         =   4.1356131274554E-05
(PID.TID 0000.0001) %MON trcstat_ptracer65_del2       =   6.0282712553244E-07
(PID.TID 0000.0001) %MON trcstat_ptracer66_max        =   5.3451433258064E-03
(PID.TID 0000.0001) %MON trcstat_ptracer66_min        =   1.1041281824336E-11
(PID.TID 0000.0001) %MON trcstat_ptracer66_mean       =   4.0845432007709E-06
(PID.TID 0000.0001) %MON trcstat_ptracer66_sd         =   4.1111521197724E-05
(PID.TID 0000.0001) %MON trcstat_ptracer66_del2       =   6.0230640658275E-07
(PID.TID 0000.0001) %MON trcstat_ptracer67_max        =   5.2581235667650E-03
(PID.TID 0000.0001) %MON trcstat_ptracer67_min        =   1.1041281823447E-11
(PID.TID 0000.0001) %MON trcstat_ptracer67_mean       =   3.9226551072517E-06
(PID.TID 0000.0001) %MON trcstat_ptracer67_sd         =   3.9449476827585E-05
(PID.TID 0000.0001) %MON trcstat_ptracer67_del2       =   5.8994754827578E-07
(PID.TID 0000.0001) %MON trcstat_ptracer68_max        =   5.3087589696356E-03
(PID.TID 0000.0001) %MON trcstat_ptracer68_min        =   1.1030275250710E-11
(PID.TID 0000.0001) %MON trcstat_ptracer68_mean       =   4.0218426420287E-06
(PID.TID 0000.0001) %MON trcstat_ptracer68_sd         =   4.0443131675250E-05
(PID.TID 0000.0001) %MON trcstat_ptracer68_del2       =   5.9748101356594E-07
(PID.TID 0000.0001) %MON trcstat_ptracer69_max        =   5.3451433258064E-03
(PID.TID 0000.0001) %MON trcstat_ptracer69_min        =   1.1041281824336E-11
(PID.TID 0000.0001) %MON trcstat_ptracer69_mean       =   4.2037739661689E-06
(PID.TID 0000.0001) %MON trcstat_ptracer69_sd         =   4.2052446237216E-05
(PID.TID 0000.0001) %MON trcstat_ptracer69_del2       =   6.0457190209594E-07
(PID.TID 0000.0001) %MON trcstat_ptracer70_max        =   5.3451433258064E-03
(PID.TID 0000.0001) %MON trcstat_ptracer70_min        =   1.1041281824336E-11
(PID.TID 0000.0001) %MON trcstat_ptracer70_mean       =   3.9794876216090E-06
(PID.TID 0000.0001) %MON trcstat_ptracer70_sd         =   4.0100670240419E-05
(PID.TID 0000.0001) %MON trcstat_ptracer70_del2       =   5.9858339562376E-07
(PID.TID 0000.0001) %MON trcstat_ptracer71_max        =   5.3451433258064E-03
(PID.TID 0000.0001) %MON trcstat_ptracer71_min        =   1.1041281824336E-11
(PID.TID 0000.0001) %MON trcstat_ptracer71_mean       =   4.0839985795523E-06
(PID.TID 0000.0001) %MON trcstat_ptracer71_sd         =   4.1034425995091E-05
(PID.TID 0000.0001) %MON trcstat_ptracer71_del2       =   6.0143558735611E-07
(PID.TID 0000.0001) %MON trcstat_ptracer72_max        =   5.3087589696356E-03
(PID.TID 0000.0001) %MON trcstat_ptracer72_min        =   1.1030275250710E-11
(PID.TID 0000.0001) %MON trcstat_ptracer72_mean       =   3.9081776206092E-06
(PID.TID 0000.0001) %MON trcstat_ptracer72_sd         =   3.9705064718598E-05
(PID.TID 0000.0001) %MON trcstat_ptracer72_del2       =   5.9507332448173E-07
(PID.TID 0000.0001) %MON trcstat_ptracer73_max        =   5.3451433258064E-03
(PID.TID 0000.0001) %MON trcstat_ptracer73_min        =   1.1041281824336E-11
(PID.TID 0000.0001) %MON trcstat_ptracer73_mean       =   4.1806516210254E-06
(PID.TID 0000.0001) %MON trcstat_ptracer73_sd         =   4.1896190195641E-05
(PID.TID 0000.0001) %MON trcstat_ptracer73_del2       =   6.0482655237488E-07
(PID.TID 0000.0001) %MON trcstat_ptracer74_max        =   5.2581235667650E-03
(PID.TID 0000.0001) %MON trcstat_ptracer74_min        =   1.1041281823447E-11
(PID.TID 0000.0001) %MON trcstat_ptracer74_mean       =   3.9921085360162E-06
(PID.TID 0000.0001) %MON trcstat_ptracer74_sd         =   4.0104689573741E-05
(PID.TID 0000.0001) %MON trcstat_ptracer74_del2       =   5.9276433173248E-07
(PID.TID 0000.0001) %MON trcstat_ptracer75_max        =   5.3087589696356E-03
(PID.TID 0000.0001) %MON trcstat_ptracer75_min        =   1.1030275250710E-11
(PID.TID 0000.0001) %MON trcstat_ptracer75_mean       =   4.1492477375662E-06
(PID.TID 0000.0001) %MON trcstat_ptracer75_sd         =   4.1838741829197E-05
(PID.TID 0000.0001) %MON trcstat_ptracer75_del2       =   6.0403092500140E-07
(PID.TID 0000.0001) %MON trcstat_ptracer76_max        =   5.3087589696356E-03
(PID.TID 0000.0001) %MON trcstat_ptracer76_min        =   1.1030275250710E-11
(PID.TID 0000.0001) %MON trcstat_ptracer76_mean       =   4.1295632826566E-06
(PID.TID 0000.0001) %MON trcstat_ptracer76_sd         =   4.1669062729214E-05
(PID.TID 0000.0001) %MON trcstat_ptracer76_del2       =   6.0519478396432E-07
(PID.TID 0000.0001) %MON trcstat_ptracer77_max        =   5.3087589696356E-03
(PID.TID 0000.0001) %MON trcstat_ptracer77_min        =   1.1030275250710E-11
(PID.TID 0000.0001) %MON trcstat_ptracer77_mean       =   4.1845195541609E-06
(PID.TID 0000.0001) %MON trcstat_ptracer77_sd         =   4.1409521469866E-05
(PID.TID 0000.0001) %MON trcstat_ptracer77_del2       =   5.9960463132447E-07
(PID.TID 0000.0001) %MON trcstat_ptracer78_max        =   5.3087589696356E-03
(PID.TID 0000.0001) %MON trcstat_ptracer78_min        =   1.1030275250710E-11
(PID.TID 0000.0001) %MON trcstat_ptracer78_mean       =   4.0146036232952E-06
(PID.TID 0000.0001) %MON trcstat_ptracer78_sd         =   4.0514110659596E-05
(PID.TID 0000.0001) %MON trcstat_ptracer78_del2       =   5.9826405922955E-07
(PID.TID 0000.0001) %MON trcstat_ptracer79_max        =   5.2581235667650E-03
(PID.TID 0000.0001) %MON trcstat_ptracer79_min        =   1.1041281823447E-11
(PID.TID 0000.0001) %MON trcstat_ptracer79_mean       =   4.1766205864592E-06
(PID.TID 0000.0001) %MON trcstat_ptracer79_sd         =   4.1057854334038E-05
(PID.TID 0000.0001) %MON trcstat_ptracer79_del2       =   5.9195669328264E-07
(PID.TID 0000.0001) %MON trcstat_ptracer80_max        =   5.3451433258064E-03
(PID.TID 0000.0001) %MON trcstat_ptracer80_min        =   1.1041281824336E-11
(PID.TID 0000.0001) %MON trcstat_ptracer80_mean       =   4.0450130852728E-06
(PID.TID 0000.0001) %MON trcstat_ptracer80_sd         =   4.0843141733283E-05
(PID.TID 0000.0001) %MON trcstat_ptracer80_del2       =   6.0361034910837E-07
(PID.TID 0000.0001) %MON trcstat_ptracer81_max        =   5.3087589696356E-03
(PID.TID 0000.0001) %MON trcstat_ptracer81_min        =   1.1030275250710E-11
(PID.TID 0000.0001) %MON trcstat_ptracer81_mean       =   3.9775263738744E-06
(PID.TID 0000.0001) %MON trcstat_ptracer81_sd         =   4.0262952107983E-05
(PID.TID 0000.0001) %MON trcstat_ptracer81_del2       =   5.9812852867803E-07
(PID.TID 0000.0001) %MON trcstat_ptracer82_max        =   5.2581235667650E-03
(PID.TID 0000.0001) %MON trcstat_ptracer82_min        =   1.1041281823447E-11
(PID.TID 0000.0001) %MON trcstat_ptracer82_mean       =   4.1303483430444E-06
(PID.TID 0000.0001) %MON trcstat_ptracer82_sd         =   4.1240290797203E-05
(PID.TID 0000.0001) %MON trcstat_ptracer82_del2       =   5.9527653154836E-07
(PID.TID 0000.0001) %MON trcstat_ptracer83_max        =   5.3451433258064E-03
(PID.TID 0000.0001) %MON trcstat_ptracer83_min        =   1.1041281824336E-11
(PID.TID 0000.0001) %MON trcstat_ptracer83_mean       =   4.3393358446179E-06
(PID.TID 0000.0001) %MON trcstat_ptracer83_sd         =   4.2731305055644E-05
(PID.TID 0000.0001) %MON trcstat_ptracer83_del2       =   6.0513057134161E-07
(PID.TID 0000.0001) %MON trcstat_ptracer84_max        =   5.3451433258064E-03
(PID.TID 0000.0001) %MON trcstat_ptracer84_min        =   1.1041281824336E-11
(PID.TID 0000.0001) %MON trcstat_ptracer84_mean       =   4.2845761458506E-06
(PID.TID 0000.0001) %MON trcstat_ptracer84_sd         =   4.2541764033689E-05
(PID.TID 0000.0001) %MON trcstat_ptracer84_del2       =   6.0458332820002E-07
(PID.TID 0000.0001) %MON trcstat_ptracer85_max        =   5.3087589696356E-03
(PID.TID 0000.0001) %MON trcstat_ptracer85_min        =   1.1030275250710E-11
(PID.TID 0000.0001) %MON trcstat_ptracer85_mean       =   3.9365409444921E-06
(PID.TID 0000.0001) %MON trcstat_ptracer85_sd         =   3.9779954523236E-05
(PID.TID 0000.0001) %MON trcstat_ptracer85_del2       =   5.9594233745772E-07
(PID.TID 0000.0001) %MON trcstat_ptracer86_max        =   5.3087589696356E-03
(PID.TID 0000.0001) %MON trcstat_ptracer86_min        =   1.1030275250710E-11
(PID.TID 0000.0001) %MON trcstat_ptracer86_mean       =   4.1113155289086E-06
(PID.TID 0000.0001) %MON trcstat_ptracer86_sd         =   4.1644358694052E-05
(PID.TID 0000.0001) %MON trcstat_ptracer86_del2       =   6.0655558858850E-07
(PID.TID 0000.0001) %MON trcstat_ptracer87_max        =   5.3087589696356E-03
(PID.TID 0000.0001) %MON trcstat_ptracer87_min        =   1.1030275250710E-11
(PID.TID 0000.0001) %MON trcstat_ptracer87_mean       =   3.8899195215807E-06
(PID.TID 0000.0001) %MON trcstat_ptracer87_sd         =   3.9475034468535E-05
(PID.TID 0000.0001) %MON trcstat_ptracer87_del2       =   5.9430301963220E-07
(PID.TID 0000.0001) %MON trcstat_ptracer88_max        =   5.3451433258064E-03
(PID.TID 0000.0001) %MON trcstat_ptracer88_min        =   1.1041281824336E-11
(PID.TID 0000.0001) %MON trcstat_ptracer88_mean       =   4.1199852907585E-06
(PID.TID 0000.0001) %MON trcstat_ptracer88_sd         =   4.1281857622763E-05
(PID.TID 0000.0001) %MON trcstat_ptracer88_del2       =   6.0183632345467E-07
(PID.TID 0000.0001) %MON trcstat_ptracer89_max        =   5.3087589696356E-03
(PID.TID 0000.0001) %MON trcstat_ptracer89_min        =   1.1030275250710E-11
(PID.TID 0000.0001) %MON trcstat_ptracer89_mean       =   3.9283946505004E-06
(PID.TID 0000.0001) %MON trcstat_ptracer89_sd         =   3.9811264301084E-05
(PID.TID 0000.0001) %MON trcstat_ptracer89_del2       =   5.9604142661556E-07
(PID.TID 0000.0001) %MON trcstat_ptracer90_max        =   5.3087589696356E-03
(PID.TID 0000.0001) %MON trcstat_ptracer90_min        =   1.1030275250710E-11
(PID.TID 0000.0001) %MON trcstat_ptracer90_mean       =   3.8785229451331E-06
(PID.TID 0000.0001) %MON trcstat_ptracer90_sd         =   3.9439365706830E-05
(PID.TID 0000.0001) %MON trcstat_ptracer90_del2       =   5.9360899053300E-07
(PID.TID 0000.0001) %MON trcstat_ptracer91_max        =   5.3087589696356E-03
(PID.TID 0000.0001) %MON trcstat_ptracer91_min        =   1.1030275250710E-11
(PID.TID 0000.0001) %MON trcstat_ptracer91_mean       =   3.9723543292486E-06
(PID.TID 0000.0001) %MON trcstat_ptracer91_sd         =   4.0128101858241E-05
(PID.TID 0000.0001) %MON trcstat_ptracer91_del2       =   5.9667447920826E-07
(PID.TID 0000.0001) %MON trcstat_ptracer92_max        =   5.3087589696356E-03
(PID.TID 0000.0001) %MON trcstat_ptracer92_min        =   1.1030275250710E-11
(PID.TID 0000.0001) %MON trcstat_ptracer92_mean       =   4.2780404410379E-06
(PID.TID 0000.0001) %MON trcstat_ptracer92_sd         =   4.2127599967451E-05
(PID.TID 0000.0001) %MON trcstat_ptracer92_del2       =   6.0126917253817E-07
(PID.TID 0000.0001) %MON trcstat_ptracer93_max        =   5.2581235667650E-03
(PID.TID 0000.0001) %MON trcstat_ptracer93_min        =   1.1041281823447E-11
(PID.TID 0000.0001) %MON trcstat_ptracer93_mean       =   4.2585426991757E-06
(PID.TID 0000.0001) %MON trcstat_ptracer93_sd         =   4.2399466054012E-05
(PID.TID 0000.0001) %MON trcstat_ptracer93_del2       =   5.9971663360862E-07
(PID.TID 0000.0001) %MON trcstat_ptracer94_max        =   5.2581235667650E-03
(PID.TID 0000.0001) %MON trcstat_ptracer94_min        =   1.1041281823447E-11
(PID.TID 0000.0001) %MON trcstat_ptracer94_mean       =   4.0997190714653E-06
(PID.TID 0000.0001) %MON trcstat_ptracer94_sd         =   4.0870765179344E-05
(PID.TID 0000.0001) %MON trcstat_ptracer94_del2       =   5.9325478130299E-07
(PID.TID 0000.0001) %MON trcstat_ptracer95_max        =   5.3451433258064E-03
(PID.TID 0000.0001) %MON trcstat_ptracer95_min        =   1.1041281824336E-11
(PID.TID 0000.0001) %MON trcstat_ptracer95_mean       =   3.9298617987860E-06
(PID.TID 0000.0001) %MON trcstat_ptracer95_sd         =   3.9799137879136E-05
(PID.TID 0000.0001) %MON trcstat_ptracer95_del2       =   5.9862449219071E-07
(PID.TID 0000.0001) %MON trcstat_ptracer96_max        =   5.3087589696356E-03
(PID.TID 0000.0001) %MON trcstat_ptracer96_min        =   1.1030275250710E-11
(PID.TID 0000.0001) %MON trcstat_ptracer96_mean       =   4.0913329762861E-06
(PID.TID 0000.0001) %MON trcstat_ptracer96_sd         =   4.0624286608656E-05
(PID.TID 0000.0001) %MON trcstat_ptracer96_del2       =   5.9683700685554E-07
(PID.TID 0000.0001) %MON trcstat_ptracer97_max        =   5.3087589696356E-03
(PID.TID 0000.0001) %MON trcstat_ptracer97_min        =   1.1030275250710E-11
(PID.TID 0000.0001) %MON trcstat_ptracer97_mean       =   4.0581322568633E-06
(PID.TID 0000.0001) %MON trcstat_ptracer97_sd         =   4.1107458510512E-05
(PID.TID 0000.0001) %MON trcstat_ptracer97_del2       =   6.0466112977834E-07
(PID.TID 0000.0001) %MON trcstat_ptracer98_max        =   5.3087589696356E-03
(PID.TID 0000.0001) %MON trcstat_ptracer98_min        =   1.1030275250710E-11
(PID.TID 0000.0001) %MON trcstat_ptracer98_mean       =   4.0493832532698E-06
(PID.TID 0000.0001) %MON trcstat_ptracer98_sd         =   4.0676158603517E-05
(PID.TID 0000.0001) %MON trcstat_ptracer98_del2       =   5.9755876244738E-07
(PID.TID 0000.0001) %MON trcstat_ptracer99_max        =   5.3087589696356E-03
(PID.TID 0000.0001) %MON trcstat_ptracer99_min        =   1.1030275250710E-11
(PID.TID 0000.0001) %MON trcstat_ptracer99_mean       =   4.1443301608189E-06
(PID.TID 0000.0001) %MON trcstat_ptracer99_sd         =   4.1911145487510E-05
(PID.TID 0000.0001) %MON trcstat_ptracer99_del2       =   6.0648645233854E-07
(PID.TID 0000.0001) // =======================================================
(PID.TID 0000.0001) // End MONITOR ptracers field statistics
(PID.TID 0000.0001) // =======================================================
 cg2d: Sum(rhs),rhsMax =  -6.05039573997601E-07  7.54809699793438E+00
(PID.TID 0000.0001)                    cg2d_init_res =    1.60348798167039E-02
(PID.TID 0000.0001)                       cg2d_iters =    22
(PID.TID 0000.0001)                         cg2d_res =    7.24977513643558E-14
(PID.TID 0000.0001) // =======================================================
(PID.TID 0000.0001) // Begin MONITOR dynamic field statistics
(PID.TID 0000.0001) // =======================================================
(PID.TID 0000.0001) %MON time_tsnumber                =               5644802
(PID.TID 0000.0001) %MON time_secondsf                =   2.4385544640000E+11
(PID.TID 0000.0001) %MON dynstat_eta_max              =   9.3669450902033E-01
(PID.TID 0000.0001) %MON dynstat_eta_min              =  -1.7304083898031E+00
(PID.TID 0000.0001) %MON dynstat_eta_mean             =   1.6246261649087E-10
(PID.TID 0000.0001) %MON dynstat_eta_sd               =   6.5170215564505E-01
(PID.TID 0000.0001) %MON dynstat_eta_del2             =   9.2948657481454E-04
(PID.TID 0000.0001) %MON dynstat_uvel_max             =   1.5520061118669E-01
(PID.TID 0000.0001) %MON dynstat_uvel_min             =  -1.8455959946386E-01
(PID.TID 0000.0001) %MON dynstat_uvel_mean            =   2.9500067212833E-03
(PID.TID 0000.0001) %MON dynstat_uvel_sd              =   1.3887241721064E-02
(PID.TID 0000.0001) %MON dynstat_uvel_del2            =   3.8119004119820E-05
(PID.TID 0000.0001) %MON dynstat_vvel_max             =   1.1194223105632E-01
(PID.TID 0000.0001) %MON dynstat_vvel_min             =  -1.5109286090867E-01
(PID.TID 0000.0001) %MON dynstat_vvel_mean            =  -1.9137717678910E-04
(PID.TID 0000.0001) %MON dynstat_vvel_sd              =   6.3553882243076E-03
(PID.TID 0000.0001) %MON dynstat_vvel_del2            =   2.6608039254203E-05
(PID.TID 0000.0001) %MON dynstat_wvel_max             =   4.3039277392185E-05
(PID.TID 0000.0001) %MON dynstat_wvel_min             =  -6.4954183401629E-05
(PID.TID 0000.0001) %MON dynstat_wvel_mean            =   1.6188913988088E-22
(PID.TID 0000.0001) %MON dynstat_wvel_sd              =   1.9029174080860E-06
(PID.TID 0000.0001) %MON dynstat_wvel_del2            =   1.3087649862559E-08
(PID.TID 0000.0001) %MON dynstat_theta_max            =   2.9956169503656E+01
(PID.TID 0000.0001) %MON dynstat_theta_min            =  -2.1380105738436E+00
(PID.TID 0000.0001) %MON dynstat_theta_mean           =   3.7551993238610E+00
(PID.TID 0000.0001) %MON dynstat_theta_sd             =   5.1498438038028E+00
(PID.TID 0000.0001) %MON dynstat_theta_del2           =   2.2475610759998E-03
(PID.TID 0000.0001) %MON dynstat_salt_max             =   3.7553576011854E+01
(PID.TID 0000.0001) %MON dynstat_salt_min             =   3.1355298076470E+01
(PID.TID 0000.0001) %MON dynstat_salt_mean            =   3.4543283111767E+01
(PID.TID 0000.0001) %MON dynstat_salt_sd              =   3.5868308299670E-01
(PID.TID 0000.0001) %MON dynstat_salt_del2            =   3.8156578764205E-04
(PID.TID 0000.0001) %MON forcing_qnet_max             =   4.5165532073975E+02
(PID.TID 0000.0001) %MON forcing_qnet_min             =  -2.1277729593913E+02
(PID.TID 0000.0001) %MON forcing_qnet_mean            =  -1.7629331279213E+01
(PID.TID 0000.0001) %MON forcing_qnet_sd              =   1.1589696557541E+02
(PID.TID 0000.0001) %MON forcing_qnet_del2            =   2.7311634019844E-01
(PID.TID 0000.0001) %MON forcing_qsw_max              =   0.0000000000000E+00
(PID.TID 0000.0001) %MON forcing_qsw_min              =   0.0000000000000E+00
(PID.TID 0000.0001) %MON forcing_qsw_mean             =   0.0000000000000E+00
(PID.TID 0000.0001) %MON forcing_qsw_sd               =   0.0000000000000E+00
(PID.TID 0000.0001) %MON forcing_qsw_del2             =   0.0000000000000E+00
(PID.TID 0000.0001) %MON forcing_empmr_max            =   6.9206222512719E-05
(PID.TID 0000.0001) %MON forcing_empmr_min            =  -1.5544422772962E-04
(PID.TID 0000.0001) %MON forcing_empmr_mean           =   1.2460352661810E-14
(PID.TID 0000.0001) %MON forcing_empmr_sd             =   2.4700019777611E-05
(PID.TID 0000.0001) %MON forcing_empmr_del2           =   1.1591736879229E-07
(PID.TID 0000.0001) %MON forcing_fu_max               =   2.6912787457307E-01
(PID.TID 0000.0001) %MON forcing_fu_min               =  -1.5720446159442E-01
(PID.TID 0000.0001) %MON forcing_fu_mean              =   1.7822779918771E-02
(PID.TID 0000.0001) %MON forcing_fu_sd                =   8.9611665321265E-02
(PID.TID 0000.0001) %MON forcing_fu_del2              =   2.4809007353166E-04
(PID.TID 0000.0001) %MON forcing_fv_max               =   1.9778054629763E-01
(PID.TID 0000.0001) %MON forcing_fv_min               =  -1.5953998118639E-01
(PID.TID 0000.0001) %MON forcing_fv_mean              =  -6.4319072438236E-03
(PID.TID 0000.0001) %MON forcing_fv_sd                =   4.4324355939290E-02
(PID.TID 0000.0001) %MON forcing_fv_del2              =   1.7988590232348E-04
(PID.TID 0000.0001) %MON advcfl_uvel_max              =   4.0078918420628E-02
(PID.TID 0000.0001) %MON advcfl_vvel_max              =   2.0874609519219E-02
(PID.TID 0000.0001) %MON advcfl_wvel_max              =   1.3137738556176E-02
(PID.TID 0000.0001) %MON advcfl_W_hf_max              =   1.5483763298350E-02
(PID.TID 0000.0001) %MON pe_b_mean                    =   5.8626547378005E-04
(PID.TID 0000.0001) %MON ke_max                       =   1.7876070038758E-02
(PID.TID 0000.0001) %MON ke_mean                      =   1.1148375363652E-04
(PID.TID 0000.0001) %MON ke_vol                       =   1.1739855207380E+18
(PID.TID 0000.0001) %MON vort_r_min                   =  -5.5554520820579E-07
(PID.TID 0000.0001) %MON vort_r_max                   =   6.2137160933136E-07
(PID.TID 0000.0001) %MON vort_a_mean                  =  -2.5798915502265E-05
(PID.TID 0000.0001) %MON vort_a_sd                    =   7.3558772929111E-05
(PID.TID 0000.0001) %MON vort_p_mean                  =  -3.0020960747216E-05
(PID.TID 0000.0001) %MON vort_p_sd                    =   9.8090577523159E-05
(PID.TID 0000.0001) %MON surfExpan_theta_mean         =  -2.7138055601396E-07
(PID.TID 0000.0001) %MON surfExpan_salt_mean          =   2.5216770616801E-08
(PID.TID 0000.0001) // =======================================================
(PID.TID 0000.0001) // End MONITOR dynamic field statistics
(PID.TID 0000.0001) // =======================================================
(PID.TID 0000.0001) // =======================================================
(PID.TID 0000.0001) // Begin MONITOR ptracer field statistics
(PID.TID 0000.0001) // =======================================================
(PID.TID 0000.0001) %MON trcstat_ptracer01_max        =   3.4906100214664E+00
(PID.TID 0000.0001) %MON trcstat_ptracer01_min        =   4.7297976361623E-02
(PID.TID 0000.0001) %MON trcstat_ptracer01_mean       =   2.1106222144224E+00
(PID.TID 0000.0001) %MON trcstat_ptracer01_sd         =   6.4916243969908E-01
(PID.TID 0000.0001) %MON trcstat_ptracer01_del2       =   3.7259729571022E-04
(PID.TID 0000.0001) %MON trcstat_ptracer02_max        =   5.5518609626335E+01
(PID.TID 0000.0001) %MON trcstat_ptracer02_min        =   3.0218833638846E-04
(PID.TID 0000.0001) %MON trcstat_ptracer02_mean       =   3.0321072472323E+01
(PID.TID 0000.0001) %MON trcstat_ptracer02_sd         =   9.3055126841807E+00
(PID.TID 0000.0001) %MON trcstat_ptracer02_del2       =   7.1741159594494E-03
(PID.TID 0000.0001) %MON trcstat_ptracer03_max        =   1.3877611882304E-03
(PID.TID 0000.0001) %MON trcstat_ptracer03_min        =   4.0347260867456E-06
(PID.TID 0000.0001) %MON trcstat_ptracer03_mean       =   3.2964738252096E-04
(PID.TID 0000.0001) %MON trcstat_ptracer03_sd         =   2.1707228440605E-04
(PID.TID 0000.0001) %MON trcstat_ptracer03_del2       =   2.1212430133722E-07
(PID.TID 0000.0001) %MON trcstat_ptracer04_max        =   1.8842071678364E+02
(PID.TID 0000.0001) %MON trcstat_ptracer04_min        =   4.2936571325963E-01
(PID.TID 0000.0001) %MON trcstat_ptracer04_mean       =   8.3739739468662E+01
(PID.TID 0000.0001) %MON trcstat_ptracer04_sd         =   4.9672435683558E+01
(PID.TID 0000.0001) %MON trcstat_ptracer04_del2       =   1.6779647591959E-02
(PID.TID 0000.0001) %MON trcstat_ptracer05_max        =   1.2787037523608E-01
(PID.TID 0000.0001) %MON trcstat_ptracer05_min        =  -1.5931120160830E-04
(PID.TID 0000.0001) %MON trcstat_ptracer05_mean       =   1.0821395223881E-03
(PID.TID 0000.0001) %MON trcstat_ptracer05_sd         =   6.8513685306524E-03
(PID.TID 0000.0001) %MON trcstat_ptracer05_del2       =   1.9882594154793E-05
(PID.TID 0000.0001) %MON trcstat_ptracer06_max        =   2.0459260037773E+00
(PID.TID 0000.0001) %MON trcstat_ptracer06_min        =  -2.5489792257328E-03
(PID.TID 0000.0001) %MON trcstat_ptracer06_mean       =   1.7314232358209E-02
(PID.TID 0000.0001) %MON trcstat_ptracer06_sd         =   1.0962189649044E-01
(PID.TID 0000.0001) %MON trcstat_ptracer06_del2       =   3.1812150647669E-04
(PID.TID 0000.0001) %MON trcstat_ptracer07_max        =   7.8077135102057E-05
(PID.TID 0000.0001) %MON trcstat_ptracer07_min        =  -1.3527817188306E-07
(PID.TID 0000.0001) %MON trcstat_ptracer07_mean       =   3.0763078790940E-07
(PID.TID 0000.0001) %MON trcstat_ptracer07_sd         =   2.1456365796959E-06
(PID.TID 0000.0001) %MON trcstat_ptracer07_del2       =   8.3071123192368E-09
(PID.TID 0000.0001) %MON trcstat_ptracer08_max        =   6.4292506082155E-02
(PID.TID 0000.0001) %MON trcstat_ptracer08_min        =   1.0939704162788E-10
(PID.TID 0000.0001) %MON trcstat_ptracer08_mean       =   3.9850176864281E-05
(PID.TID 0000.0001) %MON trcstat_ptracer08_sd         =   4.2662889506934E-04
(PID.TID 0000.0001) %MON trcstat_ptracer08_del2       =   6.9013336232361E-06
(PID.TID 0000.0001) %MON trcstat_ptracer09_max        =   1.0286800973145E+00
(PID.TID 0000.0001) %MON trcstat_ptracer09_min        =   1.7503526660461E-09
(PID.TID 0000.0001) %MON trcstat_ptracer09_mean       =   6.3760282982849E-04
(PID.TID 0000.0001) %MON trcstat_ptracer09_sd         =   6.8260623211094E-03
(PID.TID 0000.0001) %MON trcstat_ptracer09_del2       =   1.1042133797178E-04
(PID.TID 0000.0001) %MON trcstat_ptracer10_max        =   1.4618582946771E-04
(PID.TID 0000.0001) %MON trcstat_ptracer10_min        =   2.7349260807043E-13
(PID.TID 0000.0001) %MON trcstat_ptracer10_mean       =   9.7835825267473E-08
(PID.TID 0000.0001) %MON trcstat_ptracer10_sd         =   1.0155956356285E-06
(PID.TID 0000.0001) %MON trcstat_ptracer10_del2       =   1.5893221496451E-08
(PID.TID 0000.0001) %MON trcstat_ptracer11_max        =   4.4038044669882E-01
(PID.TID 0000.0001) %MON trcstat_ptracer11_min        =   8.7517633220291E-10
(PID.TID 0000.0001) %MON trcstat_ptracer11_mean       =   3.0970844528362E-04
(PID.TID 0000.0001) %MON trcstat_ptracer11_sd         =   3.1550585332326E-03
(PID.TID 0000.0001) %MON trcstat_ptracer11_del2       =   4.8310751561576E-05
(PID.TID 0000.0001) %MON trcstat_ptracer12_max        =   6.5509619007146E-02
(PID.TID 0000.0001) %MON trcstat_ptracer12_min        =   1.0939704162213E-10
(PID.TID 0000.0001) %MON trcstat_ptracer12_mean       =   3.9912093692948E-05
(PID.TID 0000.0001) %MON trcstat_ptracer12_sd         =   4.2935700571884E-04
(PID.TID 0000.0001) %MON trcstat_ptracer12_del2       =   6.9970514233974E-06
(PID.TID 0000.0001) %MON trcstat_ptracer13_max        =   1.0481539041143E+00
(PID.TID 0000.0001) %MON trcstat_ptracer13_min        =   1.7503526659540E-09
(PID.TID 0000.0001) %MON trcstat_ptracer13_mean       =   6.3859349908717E-04
(PID.TID 0000.0001) %MON trcstat_ptracer13_sd         =   6.8697120915014E-03
(PID.TID 0000.0001) %MON trcstat_ptracer13_del2       =   1.1195282277436E-04
(PID.TID 0000.0001) %MON trcstat_ptracer14_max        =   1.4740294239270E-04
(PID.TID 0000.0001) %MON trcstat_ptracer14_min        =   2.7349260806467E-13
(PID.TID 0000.0001) %MON trcstat_ptracer14_mean       =   9.7897742096140E-08
(PID.TID 0000.0001) %MON trcstat_ptracer14_sd         =   1.0182562147961E-06
(PID.TID 0000.0001) %MON trcstat_ptracer14_del2       =   1.5987610626032E-08
(PID.TID 0000.0001) %MON trcstat_ptracer15_max        =   4.8826107063411E-01
(PID.TID 0000.0001) %MON trcstat_ptracer15_min        =   8.7517633263929E-10
(PID.TID 0000.0001) %MON trcstat_ptracer15_mean       =   3.1517404194130E-04
(PID.TID 0000.0001) %MON trcstat_ptracer15_sd         =   3.3134199830243E-03
(PID.TID 0000.0001) %MON trcstat_ptracer15_del2       =   5.2672204398980E-05
(PID.TID 0000.0001) %MON trcstat_ptracer16_max        =   1.8515489467741E-01
(PID.TID 0000.0001) %MON trcstat_ptracer16_min        =   8.3852026862675E-08
(PID.TID 0000.0001) %MON trcstat_ptracer16_mean       =   1.6744592202434E-03
(PID.TID 0000.0001) %MON trcstat_ptracer16_sd         =   3.6113349409217E-03
(PID.TID 0000.0001) %MON trcstat_ptracer16_del2       =   1.6612851059834E-05
(PID.TID 0000.0001) %MON trcstat_ptracer17_max        =   2.9624783148386E+00
(PID.TID 0000.0001) %MON trcstat_ptracer17_min        =   1.3416324298028E-06
(PID.TID 0000.0001) %MON trcstat_ptracer17_mean       =   2.6791347523894E-02
(PID.TID 0000.0001) %MON trcstat_ptracer17_sd         =   5.7781359054748E-02
(PID.TID 0000.0001) %MON trcstat_ptracer17_del2       =   2.6580561695734E-04
(PID.TID 0000.0001) %MON trcstat_ptracer18_max        =   1.9212246193495E-04
(PID.TID 0000.0001) %MON trcstat_ptracer18_min        =   1.3506010782902E-11
(PID.TID 0000.0001) %MON trcstat_ptracer18_mean       =   7.4728251434234E-07
(PID.TID 0000.0001) %MON trcstat_ptracer18_sd         =   2.3719770954370E-06
(PID.TID 0000.0001) %MON trcstat_ptracer18_del2       =   1.2444999277093E-08
(PID.TID 0000.0001) %MON trcstat_ptracer19_max        =   4.0382346960998E+01
(PID.TID 0000.0001) %MON trcstat_ptracer19_min        =  -1.3473855353276E-01
(PID.TID 0000.0001) %MON trcstat_ptracer19_mean       =   1.5123876172967E-01
(PID.TID 0000.0001) %MON trcstat_ptracer19_sd         =   4.0979026273720E-01
(PID.TID 0000.0001) %MON trcstat_ptracer19_del2       =   2.1484194515860E-03
(PID.TID 0000.0001) %MON trcstat_ptracer20_max        =   3.1092725909521E-01
(PID.TID 0000.0001) %MON trcstat_ptracer20_min        =   1.0247162355482E-07
(PID.TID 0000.0001) %MON trcstat_ptracer20_mean       =   3.7708201336724E-03
(PID.TID 0000.0001) %MON trcstat_ptracer20_sd         =   2.0060909201435E-02
(PID.TID 0000.0001) %MON trcstat_ptracer20_del2       =   5.6194842737604E-05
(PID.TID 0000.0001) %MON trcstat_ptracer21_max        =   2.5336140382663E+00
(PID.TID 0000.0001) %MON trcstat_ptracer21_min        =   2.8110564838398E-06
(PID.TID 0000.0001) %MON trcstat_ptracer21_mean       =   3.0895065338117E-02
(PID.TID 0000.0001) %MON trcstat_ptracer21_sd         =   9.0923398848621E-02
(PID.TID 0000.0001) %MON trcstat_ptracer21_del2       =   1.2209336224306E-04
(PID.TID 0000.0001) %MON trcstat_ptracer22_max        =   4.6107443725099E-03
(PID.TID 0000.0001) %MON trcstat_ptracer22_min        =   1.0511646940573E-11
(PID.TID 0000.0001) %MON trcstat_ptracer22_mean       =   3.8379788320585E-06
(PID.TID 0000.0001) %MON trcstat_ptracer22_sd         =   3.7517495297956E-05
(PID.TID 0000.0001) %MON trcstat_ptracer22_del2       =   5.2939829524128E-07
(PID.TID 0000.0001) %MON trcstat_ptracer23_max        =   4.7037695597688E-03
(PID.TID 0000.0001) %MON trcstat_ptracer23_min        =   1.0490701407452E-11
(PID.TID 0000.0001) %MON trcstat_ptracer23_mean       =   3.9046849688774E-06
(PID.TID 0000.0001) %MON trcstat_ptracer23_sd         =   3.8325475155497E-05
(PID.TID 0000.0001) %MON trcstat_ptracer23_del2       =   5.3443428246618E-07
(PID.TID 0000.0001) %MON trcstat_ptracer24_max        =   4.7762712972445E-03
(PID.TID 0000.0001) %MON trcstat_ptracer24_min        =   1.0511646942241E-11
(PID.TID 0000.0001) %MON trcstat_ptracer24_mean       =   3.8504254814373E-06
(PID.TID 0000.0001) %MON trcstat_ptracer24_sd         =   3.7862527263365E-05
(PID.TID 0000.0001) %MON trcstat_ptracer24_del2       =   5.4180755411375E-07
(PID.TID 0000.0001) %MON trcstat_ptracer25_max        =   4.7037695597687E-03
(PID.TID 0000.0001) %MON trcstat_ptracer25_min        =   1.0490701407452E-11
(PID.TID 0000.0001) %MON trcstat_ptracer25_mean       =   3.7602972938779E-06
(PID.TID 0000.0001) %MON trcstat_ptracer25_sd         =   3.6947636549713E-05
(PID.TID 0000.0001) %MON trcstat_ptracer25_del2       =   5.3100140606907E-07
(PID.TID 0000.0001) %MON trcstat_ptracer26_max        =   4.7037695597688E-03
(PID.TID 0000.0001) %MON trcstat_ptracer26_min        =   1.0490701407452E-11
(PID.TID 0000.0001) %MON trcstat_ptracer26_mean       =   4.3432178007536E-06
(PID.TID 0000.0001) %MON trcstat_ptracer26_sd         =   4.3410017982687E-05
(PID.TID 0000.0001) %MON trcstat_ptracer26_del2       =   5.5557412717875E-07
(PID.TID 0000.0001) %MON trcstat_ptracer27_max        =   4.7037695597688E-03
(PID.TID 0000.0001) %MON trcstat_ptracer27_min        =   1.0490701407452E-11
(PID.TID 0000.0001) %MON trcstat_ptracer27_mean       =   3.9651010707728E-06
(PID.TID 0000.0001) %MON trcstat_ptracer27_sd         =   3.8651536103731E-05
(PID.TID 0000.0001) %MON trcstat_ptracer27_del2       =   5.3710245852705E-07
(PID.TID 0000.0001) %MON trcstat_ptracer28_max        =   4.7758876096591E-03
(PID.TID 0000.0001) %MON trcstat_ptracer28_min        =   1.0511646942241E-11
(PID.TID 0000.0001) %MON trcstat_ptracer28_mean       =   4.2770689405928E-06
(PID.TID 0000.0001) %MON trcstat_ptracer28_sd         =   4.2103981617315E-05
(PID.TID 0000.0001) %MON trcstat_ptracer28_del2       =   5.5146803827154E-07
(PID.TID 0000.0001) %MON trcstat_ptracer29_max        =   4.7037695597688E-03
(PID.TID 0000.0001) %MON trcstat_ptracer29_min        =   1.0490701407452E-11
(PID.TID 0000.0001) %MON trcstat_ptracer29_mean       =   3.8343579560938E-06
(PID.TID 0000.0001) %MON trcstat_ptracer29_sd         =   3.7805643668079E-05
(PID.TID 0000.0001) %MON trcstat_ptracer29_del2       =   5.3555708394117E-07
(PID.TID 0000.0001) %MON trcstat_ptracer30_max        =   4.7037695597688E-03
(PID.TID 0000.0001) %MON trcstat_ptracer30_min        =   1.0490701407452E-11
(PID.TID 0000.0001) %MON trcstat_ptracer30_mean       =   3.8870780345039E-06
(PID.TID 0000.0001) %MON trcstat_ptracer30_sd         =   3.8175589543030E-05
(PID.TID 0000.0001) %MON trcstat_ptracer30_del2       =   5.3470610799570E-07
(PID.TID 0000.0001) %MON trcstat_ptracer31_max        =   4.6102781205852E-03
(PID.TID 0000.0001) %MON trcstat_ptracer31_min        =   1.0511646940573E-11
(PID.TID 0000.0001) %MON trcstat_ptracer31_mean       =   3.9651367751412E-06
(PID.TID 0000.0001) %MON trcstat_ptracer31_sd         =   3.8525048506581E-05
(PID.TID 0000.0001) %MON trcstat_ptracer31_del2       =   5.2759285225158E-07
(PID.TID 0000.0001) %MON trcstat_ptracer32_max        =   4.7037695597688E-03
(PID.TID 0000.0001) %MON trcstat_ptracer32_min        =   1.0490701407452E-11
(PID.TID 0000.0001) %MON trcstat_ptracer32_mean       =   4.2536997274160E-06
(PID.TID 0000.0001) %MON trcstat_ptracer32_sd         =   4.2858412757310E-05
(PID.TID 0000.0001) %MON trcstat_ptracer32_del2       =   5.6225379443019E-07
(PID.TID 0000.0001) %MON trcstat_ptracer33_max        =   4.7037695597688E-03
(PID.TID 0000.0001) %MON trcstat_ptracer33_min        =   1.0490701407452E-11
(PID.TID 0000.0001) %MON trcstat_ptracer33_mean       =   3.8620005790912E-06
(PID.TID 0000.0001) %MON trcstat_ptracer33_sd         =   3.7895492382753E-05
(PID.TID 0000.0001) %MON trcstat_ptracer33_del2       =   5.3526178529719E-07
(PID.TID 0000.0001) %MON trcstat_ptracer34_max        =   4.7037695597687E-03
(PID.TID 0000.0001) %MON trcstat_ptracer34_min        =   1.0490701407452E-11
(PID.TID 0000.0001) %MON trcstat_ptracer34_mean       =   3.7180357375465E-06
(PID.TID 0000.0001) %MON trcstat_ptracer34_sd         =   3.6612668257595E-05
(PID.TID 0000.0001) %MON trcstat_ptracer34_del2       =   5.2925593269871E-07
(PID.TID 0000.0001) %MON trcstat_ptracer35_max        =   4.7758876096590E-03
(PID.TID 0000.0001) %MON trcstat_ptracer35_min        =   1.0511646942241E-11
(PID.TID 0000.0001) %MON trcstat_ptracer35_mean       =   4.9355373681292E-06
(PID.TID 0000.0001) %MON trcstat_ptracer35_sd         =   4.6891164643828E-05
(PID.TID 0000.0001) %MON trcstat_ptracer35_del2       =   5.5008726684571E-07
(PID.TID 0000.0001) %MON trcstat_ptracer36_max        =   4.6102613921280E-03
(PID.TID 0000.0001) %MON trcstat_ptracer36_min        =   1.0511646940573E-11
(PID.TID 0000.0001) %MON trcstat_ptracer36_mean       =   4.6057802715827E-06
(PID.TID 0000.0001) %MON trcstat_ptracer36_sd         =   4.4627470554205E-05
(PID.TID 0000.0001) %MON trcstat_ptracer36_del2       =   5.4179275678335E-07
(PID.TID 0000.0001) %MON trcstat_ptracer37_max        =   4.7037852929726E-03
(PID.TID 0000.0001) %MON trcstat_ptracer37_min        =   1.0490701407452E-11
(PID.TID 0000.0001) %MON trcstat_ptracer37_mean       =   3.6731319910744E-06
(PID.TID 0000.0001) %MON trcstat_ptracer37_sd         =   3.6208725534471E-05
(PID.TID 0000.0001) %MON trcstat_ptracer37_del2       =   5.2748850231713E-07
(PID.TID 0000.0001) %MON trcstat_ptracer38_max        =   4.6102613921280E-03
(PID.TID 0000.0001) %MON trcstat_ptracer38_min        =   1.0511646940573E-11
(PID.TID 0000.0001) %MON trcstat_ptracer38_mean       =   5.1911532003745E-06
(PID.TID 0000.0001) %MON trcstat_ptracer38_sd         =   5.1140808165243E-05
(PID.TID 0000.0001) %MON trcstat_ptracer38_del2       =   5.5478729661496E-07
(PID.TID 0000.0001) %MON trcstat_ptracer39_max        =   4.6102613921280E-03
(PID.TID 0000.0001) %MON trcstat_ptracer39_min        =   1.0511646940573E-11
(PID.TID 0000.0001) %MON trcstat_ptracer39_mean       =   4.8035808328125E-06
(PID.TID 0000.0001) %MON trcstat_ptracer39_sd         =   4.6880949484153E-05
(PID.TID 0000.0001) %MON trcstat_ptracer39_del2       =   5.5069530656635E-07
(PID.TID 0000.0001) %MON trcstat_ptracer40_max        =   4.7037695597688E-03
(PID.TID 0000.0001) %MON trcstat_ptracer40_min        =   1.0490701407452E-11
(PID.TID 0000.0001) %MON trcstat_ptracer40_mean       =   4.2485143799953E-06
(PID.TID 0000.0001) %MON trcstat_ptracer40_sd         =   4.2245700445657E-05
(PID.TID 0000.0001) %MON trcstat_ptracer40_del2       =   5.5304445626966E-07
(PID.TID 0000.0001) %MON trcstat_ptracer41_max        =   4.7037802963481E-03
(PID.TID 0000.0001) %MON trcstat_ptracer41_min        =   1.0490701407452E-11
(PID.TID 0000.0001) %MON trcstat_ptracer41_mean       =   3.7885311280950E-06
(PID.TID 0000.0001) %MON trcstat_ptracer41_sd         =   3.7251682978069E-05
(PID.TID 0000.0001) %MON trcstat_ptracer41_del2       =   5.3440291237738E-07
(PID.TID 0000.0001) %MON trcstat_ptracer42_max        =   4.7037695597687E-03
(PID.TID 0000.0001) %MON trcstat_ptracer42_min        =   1.0490701407452E-11
(PID.TID 0000.0001) %MON trcstat_ptracer42_mean       =   3.6940423305642E-06
(PID.TID 0000.0001) %MON trcstat_ptracer42_sd         =   3.6409191718403E-05
(PID.TID 0000.0001) %MON trcstat_ptracer42_del2       =   5.2838287776514E-07
(PID.TID 0000.0001) %MON trcstat_ptracer43_max        =   4.6102613921280E-03
(PID.TID 0000.0001) %MON trcstat_ptracer43_min        =   1.0511646940573E-11
(PID.TID 0000.0001) %MON trcstat_ptracer43_mean       =   5.0911694032657E-06
(PID.TID 0000.0001) %MON trcstat_ptracer43_sd         =   5.0526125351898E-05
(PID.TID 0000.0001) %MON trcstat_ptracer43_del2       =   5.5754336348358E-07
(PID.TID 0000.0001) %MON trcstat_ptracer44_max        =   4.7037695597688E-03
(PID.TID 0000.0001) %MON trcstat_ptracer44_min        =   1.0490701407452E-11
(PID.TID 0000.0001) %MON trcstat_ptracer44_mean       =   3.8677395332033E-06
(PID.TID 0000.0001) %MON trcstat_ptracer44_sd         =   3.7995109313620E-05
(PID.TID 0000.0001) %MON trcstat_ptracer44_del2       =   5.3405766621181E-07
(PID.TID 0000.0001) %MON trcstat_ptracer45_max        =   4.7037695597688E-03
(PID.TID 0000.0001) %MON trcstat_ptracer45_min        =   1.0490701407452E-11
(PID.TID 0000.0001) %MON trcstat_ptracer45_mean       =   3.8506318006116E-06
(PID.TID 0000.0001) %MON trcstat_ptracer45_sd         =   3.7749199298191E-05
(PID.TID 0000.0001) %MON trcstat_ptracer45_del2       =   5.3446711118898E-07
(PID.TID 0000.0001) %MON trcstat_ptracer46_max        =   4.7037695597688E-03
(PID.TID 0000.0001) %MON trcstat_ptracer46_min        =   1.0490701407452E-11
(PID.TID 0000.0001) %MON trcstat_ptracer46_mean       =   3.8411820301334E-06
(PID.TID 0000.0001) %MON trcstat_ptracer46_sd         =   3.7882827732714E-05
(PID.TID 0000.0001) %MON trcstat_ptracer46_del2       =   5.3592171249753E-07
(PID.TID 0000.0001) %MON trcstat_ptracer47_max        =   4.7037695597688E-03
(PID.TID 0000.0001) %MON trcstat_ptracer47_min        =   1.0490701407452E-11
(PID.TID 0000.0001) %MON trcstat_ptracer47_mean       =   4.6364552838086E-06
(PID.TID 0000.0001) %MON trcstat_ptracer47_sd         =   4.5142356824792E-05
(PID.TID 0000.0001) %MON trcstat_ptracer47_del2       =   5.5158571151575E-07
(PID.TID 0000.0001) %MON trcstat_ptracer48_max        =   4.6105669065799E-03
(PID.TID 0000.0001) %MON trcstat_ptracer48_min        =   1.0511646940573E-11
(PID.TID 0000.0001) %MON trcstat_ptracer48_mean       =   3.7606672948441E-06
(PID.TID 0000.0001) %MON trcstat_ptracer48_sd         =   3.6705342873830E-05
(PID.TID 0000.0001) %MON trcstat_ptracer48_del2       =   5.2382686785285E-07
(PID.TID 0000.0001) %MON trcstat_ptracer49_max        =   4.6102613921279E-03
(PID.TID 0000.0001) %MON trcstat_ptracer49_min        =   1.0511646940573E-11
(PID.TID 0000.0001) %MON trcstat_ptracer49_mean       =   4.1638904667266E-06
(PID.TID 0000.0001) %MON trcstat_ptracer49_sd         =   3.9582889007819E-05
(PID.TID 0000.0001) %MON trcstat_ptracer49_del2       =   5.2556549188675E-07
(PID.TID 0000.0001) %MON trcstat_ptracer50_max        =   4.7040380141404E-03
(PID.TID 0000.0001) %MON trcstat_ptracer50_min        =   1.0490701407452E-11
(PID.TID 0000.0001) %MON trcstat_ptracer50_mean       =   3.7438338611449E-06
(PID.TID 0000.0001) %MON trcstat_ptracer50_sd         =   3.6894144623775E-05
(PID.TID 0000.0001) %MON trcstat_ptracer50_del2       =   5.3194020329677E-07
(PID.TID 0000.0001) %MON trcstat_ptracer51_max        =   4.7037695597688E-03
(PID.TID 0000.0001) %MON trcstat_ptracer51_min        =   1.0490701407452E-11
(PID.TID 0000.0001) %MON trcstat_ptracer51_mean       =   3.7957672855941E-06
(PID.TID 0000.0001) %MON trcstat_ptracer51_sd         =   3.7204321486168E-05
(PID.TID 0000.0001) %MON trcstat_ptracer51_del2       =   5.3295253770993E-07
(PID.TID 0000.0001) %MON trcstat_ptracer52_max        =   4.7758876096590E-03
(PID.TID 0000.0001) %MON trcstat_ptracer52_min        =   1.0511646942241E-11
(PID.TID 0000.0001) %MON trcstat_ptracer52_mean       =   4.0981866146136E-06
(PID.TID 0000.0001) %MON trcstat_ptracer52_sd         =   3.9992005396422E-05
(PID.TID 0000.0001) %MON trcstat_ptracer52_del2       =   5.4256499801205E-07
(PID.TID 0000.0001) %MON trcstat_ptracer53_max        =   4.7037695597688E-03
(PID.TID 0000.0001) %MON trcstat_ptracer53_min        =   1.0490701407452E-11
(PID.TID 0000.0001) %MON trcstat_ptracer53_mean       =   4.0791706880022E-06
(PID.TID 0000.0001) %MON trcstat_ptracer53_sd         =   4.0521317651911E-05
(PID.TID 0000.0001) %MON trcstat_ptracer53_del2       =   5.5266180001322E-07
(PID.TID 0000.0001) %MON trcstat_ptracer54_max        =   4.7037695597688E-03
(PID.TID 0000.0001) %MON trcstat_ptracer54_min        =   1.0490701407452E-11
(PID.TID 0000.0001) %MON trcstat_ptracer54_mean       =   3.8433798048477E-06
(PID.TID 0000.0001) %MON trcstat_ptracer54_sd         =   3.7916817653271E-05
(PID.TID 0000.0001) %MON trcstat_ptracer54_del2       =   5.3536370393474E-07
(PID.TID 0000.0001) %MON trcstat_ptracer55_max        =   4.6102613921279E-03
(PID.TID 0000.0001) %MON trcstat_ptracer55_min        =   1.0511646940573E-11
(PID.TID 0000.0001) %MON trcstat_ptracer55_mean       =   4.0913536964356E-06
(PID.TID 0000.0001) %MON trcstat_ptracer55_sd         =   3.8456945303197E-05
(PID.TID 0000.0001) %MON trcstat_ptracer55_del2       =   5.2181239498170E-07
(PID.TID 0000.0001) %MON trcstat_ptracer56_max        =   4.6102613921280E-03
(PID.TID 0000.0001) %MON trcstat_ptracer56_min        =   1.0511646940573E-11
(PID.TID 0000.0001) %MON trcstat_ptracer56_mean       =   4.5941345396318E-06
(PID.TID 0000.0001) %MON trcstat_ptracer56_sd         =   4.4704569441750E-05
(PID.TID 0000.0001) %MON trcstat_ptracer56_del2       =   5.4558728373582E-07
(PID.TID 0000.0001) %MON trcstat_ptracer57_max        =   4.7037695597688E-03
(PID.TID 0000.0001) %MON trcstat_ptracer57_min        =   1.0490701407452E-11
(PID.TID 0000.0001) %MON trcstat_ptracer57_mean       =   4.4284965775571E-06
(PID.TID 0000.0001) %MON trcstat_ptracer57_sd         =   4.3535906753377E-05
(PID.TID 0000.0001) %MON trcstat_ptracer57_del2       =   5.4883408652838E-07
(PID.TID 0000.0001) %MON trcstat_ptracer58_max        =   4.7037695597688E-03
(PID.TID 0000.0001) %MON trcstat_ptracer58_min        =   1.0490701407452E-11
(PID.TID 0000.0001) %MON trcstat_ptracer58_mean       =   3.8168250469352E-06
(PID.TID 0000.0001) %MON trcstat_ptracer58_sd         =   3.7661201412765E-05
(PID.TID 0000.0001) %MON trcstat_ptracer58_del2       =   5.3532921333284E-07
(PID.TID 0000.0001) %MON trcstat_ptracer59_max        =   4.7758876096591E-03
(PID.TID 0000.0001) %MON trcstat_ptracer59_min        =   1.0511646942241E-11
(PID.TID 0000.0001) %MON trcstat_ptracer59_mean       =   4.7978812922648E-06
(PID.TID 0000.0001) %MON trcstat_ptracer59_sd         =   4.6421451484851E-05
(PID.TID 0000.0001) %MON trcstat_ptracer59_del2       =   5.5383005396437E-07
(PID.TID 0000.0001) %MON trcstat_ptracer60_max        =   4.7758876096591E-03
(PID.TID 0000.0001) %MON trcstat_ptracer60_min        =   1.0511646942241E-11
(PID.TID 0000.0001) %MON trcstat_ptracer60_mean       =   4.3446363003196E-06
(PID.TID 0000.0001) %MON trcstat_ptracer60_sd         =   4.2915565257887E-05
(PID.TID 0000.0001) %MON trcstat_ptracer60_del2       =   5.5620473673810E-07
(PID.TID 0000.0001) %MON trcstat_ptracer61_max        =   4.6102613921279E-03
(PID.TID 0000.0001) %MON trcstat_ptracer61_min        =   1.0511646940573E-11
(PID.TID 0000.0001) %MON trcstat_ptracer61_mean       =   4.1121446741169E-06
(PID.TID 0000.0001) %MON trcstat_ptracer61_sd         =   3.9644638549546E-05
(PID.TID 0000.0001) %MON trcstat_ptracer61_del2       =   5.2692803350322E-07
(PID.TID 0000.0001) %MON trcstat_ptracer62_max        =   4.6106569547169E-03
(PID.TID 0000.0001) %MON trcstat_ptracer62_min        =   1.0511646940573E-11
(PID.TID 0000.0001) %MON trcstat_ptracer62_mean       =   4.0110077326974E-06
(PID.TID 0000.0001) %MON trcstat_ptracer62_sd         =   3.9257726534938E-05
(PID.TID 0000.0001) %MON trcstat_ptracer62_del2       =   5.3756479394215E-07
(PID.TID 0000.0001) %MON trcstat_ptracer63_max        =   4.6102613921280E-03
(PID.TID 0000.0001) %MON trcstat_ptracer63_min        =   1.0511646940573E-11
(PID.TID 0000.0001) %MON trcstat_ptracer63_mean       =   4.9011319019321E-06
(PID.TID 0000.0001) %MON trcstat_ptracer63_sd         =   4.7207168005103E-05
(PID.TID 0000.0001) %MON trcstat_ptracer63_del2       =   5.4240411471909E-07
(PID.TID 0000.0001) %MON trcstat_ptracer64_max        =   4.7758876096591E-03
(PID.TID 0000.0001) %MON trcstat_ptracer64_min        =   1.0511646942241E-11
(PID.TID 0000.0001) %MON trcstat_ptracer64_mean       =   4.7862244667269E-06
(PID.TID 0000.0001) %MON trcstat_ptracer64_sd         =   4.6732073984403E-05
(PID.TID 0000.0001) %MON trcstat_ptracer64_del2       =   5.5857532621581E-07
(PID.TID 0000.0001) %MON trcstat_ptracer65_max        =   4.7758876096591E-03
(PID.TID 0000.0001) %MON trcstat_ptracer65_min        =   1.0511646942241E-11
(PID.TID 0000.0001) %MON trcstat_ptracer65_mean       =   4.1855263339111E-06
(PID.TID 0000.0001) %MON trcstat_ptracer65_sd         =   4.1229404948744E-05
(PID.TID 0000.0001) %MON trcstat_ptracer65_del2       =   5.4821243430595E-07
(PID.TID 0000.0001) %MON trcstat_ptracer66_max        =   4.7758876096591E-03
(PID.TID 0000.0001) %MON trcstat_ptracer66_min        =   1.0511646942241E-11
(PID.TID 0000.0001) %MON trcstat_ptracer66_mean       =   4.1160477323368E-06
(PID.TID 0000.0001) %MON trcstat_ptracer66_sd         =   4.0537613149846E-05
(PID.TID 0000.0001) %MON trcstat_ptracer66_del2       =   5.4685208515343E-07
(PID.TID 0000.0001) %MON trcstat_ptracer67_max        =   4.6102693505058E-03
(PID.TID 0000.0001) %MON trcstat_ptracer67_min        =   1.0511646940573E-11
(PID.TID 0000.0001) %MON trcstat_ptracer67_mean       =   3.7579199978602E-06
(PID.TID 0000.0001) %MON trcstat_ptracer67_sd         =   3.6448112036756E-05
(PID.TID 0000.0001) %MON trcstat_ptracer67_del2       =   5.2046041335668E-07
(PID.TID 0000.0001) %MON trcstat_ptracer68_max        =   4.7037695597688E-03
(PID.TID 0000.0001) %MON trcstat_ptracer68_min        =   1.0490701407452E-11
(PID.TID 0000.0001) %MON trcstat_ptracer68_mean       =   3.9683667333431E-06
(PID.TID 0000.0001) %MON trcstat_ptracer68_sd         =   3.8731901445417E-05
(PID.TID 0000.0001) %MON trcstat_ptracer68_del2       =   5.3607912284613E-07
(PID.TID 0000.0001) %MON trcstat_ptracer69_max        =   4.7758876096591E-03
(PID.TID 0000.0001) %MON trcstat_ptracer69_min        =   1.0511646942241E-11
(PID.TID 0000.0001) %MON trcstat_ptracer69_mean       =   4.3834396978158E-06
(PID.TID 0000.0001) %MON trcstat_ptracer69_sd         =   4.2982066663713E-05
(PID.TID 0000.0001) %MON trcstat_ptracer69_del2       =   5.5363948799815E-07
(PID.TID 0000.0001) %MON trcstat_ptracer70_max        =   4.7758876096590E-03
(PID.TID 0000.0001) %MON trcstat_ptracer70_min        =   1.0511646942241E-11
(PID.TID 0000.0001) %MON trcstat_ptracer70_mean       =   3.8743581128762E-06
(PID.TID 0000.0001) %MON trcstat_ptracer70_sd         =   3.7812698385697E-05
(PID.TID 0000.0001) %MON trcstat_ptracer70_del2       =   5.3671762309252E-07
(PID.TID 0000.0001) %MON trcstat_ptracer71_max        =   4.7758876096590E-03
(PID.TID 0000.0001) %MON trcstat_ptracer71_min        =   1.0511646942241E-11
(PID.TID 0000.0001) %MON trcstat_ptracer71_mean       =   4.1131174777122E-06
(PID.TID 0000.0001) %MON trcstat_ptracer71_sd         =   4.0332639427057E-05
(PID.TID 0000.0001) %MON trcstat_ptracer71_del2       =   5.4437983394482E-07
(PID.TID 0000.0001) %MON trcstat_ptracer72_max        =   4.7037695597687E-03
(PID.TID 0000.0001) %MON trcstat_ptracer72_min        =   1.0490701407452E-11
(PID.TID 0000.0001) %MON trcstat_ptracer72_mean       =   3.7279108448841E-06
(PID.TID 0000.0001) %MON trcstat_ptracer72_sd         =   3.6835941837065E-05
(PID.TID 0000.0001) %MON trcstat_ptracer72_del2       =   5.3018043452256E-07
(PID.TID 0000.0001) %MON trcstat_ptracer73_max        =   4.7758876096591E-03
(PID.TID 0000.0001) %MON trcstat_ptracer73_min        =   1.0511646942241E-11
(PID.TID 0000.0001) %MON trcstat_ptracer73_mean       =   4.3387943968669E-06
(PID.TID 0000.0001) %MON trcstat_ptracer73_sd         =   4.2761932326167E-05
(PID.TID 0000.0001) %MON trcstat_ptracer73_del2       =   5.5456468023129E-07
(PID.TID 0000.0001) %MON trcstat_ptracer74_max        =   4.6105355706259E-03
(PID.TID 0000.0001) %MON trcstat_ptracer74_min        =   1.0511646940573E-11
(PID.TID 0000.0001) %MON trcstat_ptracer74_mean       =   3.9083554492114E-06
(PID.TID 0000.0001) %MON trcstat_ptracer74_sd         =   3.7996145820976E-05
(PID.TID 0000.0001) %MON trcstat_ptracer74_del2       =   5.2834467489808E-07
(PID.TID 0000.0001) %MON trcstat_ptracer75_max        =   4.7037695597688E-03
(PID.TID 0000.0001) %MON trcstat_ptracer75_min        =   1.0490701407452E-11
(PID.TID 0000.0001) %MON trcstat_ptracer75_mean       =   4.2613036398306E-06
(PID.TID 0000.0001) %MON trcstat_ptracer75_sd         =   4.2701935677779E-05
(PID.TID 0000.0001) %MON trcstat_ptracer75_del2       =   5.5579725290897E-07
(PID.TID 0000.0001) %MON trcstat_ptracer76_max        =   4.7037695597688E-03
(PID.TID 0000.0001) %MON trcstat_ptracer76_min        =   1.0490701407452E-11
(PID.TID 0000.0001) %MON trcstat_ptracer76_mean       =   4.1952698600333E-06
(PID.TID 0000.0001) %MON trcstat_ptracer76_sd         =   4.1571607518816E-05
(PID.TID 0000.0001) %MON trcstat_ptracer76_del2       =   5.5290126000052E-07
(PID.TID 0000.0001) %MON trcstat_ptracer77_max        =   4.7037695597688E-03
(PID.TID 0000.0001) %MON trcstat_ptracer77_min        =   1.0490701407452E-11
(PID.TID 0000.0001) %MON trcstat_ptracer77_mean       =   4.3982226666919E-06
(PID.TID 0000.0001) %MON trcstat_ptracer77_sd         =   4.2414191711816E-05
(PID.TID 0000.0001) %MON trcstat_ptracer77_del2       =   5.4362133042503E-07
(PID.TID 0000.0001) %MON trcstat_ptracer78_max        =   4.7037695597687E-03
(PID.TID 0000.0001) %MON trcstat_ptracer78_min        =   1.0490701407452E-11
(PID.TID 0000.0001) %MON trcstat_ptracer78_mean       =   3.9335532812117E-06
(PID.TID 0000.0001) %MON trcstat_ptracer78_sd         =   3.8489660427311E-05
(PID.TID 0000.0001) %MON trcstat_ptracer78_del2       =   5.3538353187773E-07
(PID.TID 0000.0001) %MON trcstat_ptracer79_max        =   4.6102613921279E-03
(PID.TID 0000.0001) %MON trcstat_ptracer79_min        =   1.0511646940573E-11
(PID.TID 0000.0001) %MON trcstat_ptracer79_mean       =   4.3103674059543E-06
(PID.TID 0000.0001) %MON trcstat_ptracer79_sd         =   4.0443685138161E-05
(PID.TID 0000.0001) %MON trcstat_ptracer79_del2       =   5.2576122313742E-07
(PID.TID 0000.0001) %MON trcstat_ptracer80_max        =   4.7762923640036E-03
(PID.TID 0000.0001) %MON trcstat_ptracer80_min        =   1.0511646942241E-11
(PID.TID 0000.0001) %MON trcstat_ptracer80_mean       =   4.0215934171106E-06
(PID.TID 0000.0001) %MON trcstat_ptracer80_sd         =   3.9603117309427E-05
(PID.TID 0000.0001) %MON trcstat_ptracer80_del2       =   5.5082054435967E-07
(PID.TID 0000.0001) %MON trcstat_ptracer81_max        =   4.7037695597688E-03
(PID.TID 0000.0001) %MON trcstat_ptracer81_min        =   1.0490701407452E-11
(PID.TID 0000.0001) %MON trcstat_ptracer81_mean       =   3.8671461390410E-06
(PID.TID 0000.0001) %MON trcstat_ptracer81_sd         =   3.8101969897696E-05
(PID.TID 0000.0001) %MON trcstat_ptracer81_del2       =   5.3679205768152E-07
(PID.TID 0000.0001) %MON trcstat_ptracer82_max        =   4.6102613921280E-03
(PID.TID 0000.0001) %MON trcstat_ptracer82_min        =   1.0511646940573E-11
(PID.TID 0000.0001) %MON trcstat_ptracer82_mean       =   4.2299314814522E-06
(PID.TID 0000.0001) %MON trcstat_ptracer82_sd         =   4.1297463712815E-05
(PID.TID 0000.0001) %MON trcstat_ptracer82_del2       =   5.3547360675903E-07
(PID.TID 0000.0001) %MON trcstat_ptracer83_max        =   4.7758876096591E-03
(PID.TID 0000.0001) %MON trcstat_ptracer83_min        =   1.0511646942241E-11
(PID.TID 0000.0001) %MON trcstat_ptracer83_mean       =   4.8097215436206E-06
(PID.TID 0000.0001) %MON trcstat_ptracer83_sd         =   4.6810229982547E-05
(PID.TID 0000.0001) %MON trcstat_ptracer83_del2       =   5.5742175215738E-07
(PID.TID 0000.0001) %MON trcstat_ptracer84_max        =   4.7758876096591E-03
(PID.TID 0000.0001) %MON trcstat_ptracer84_min        =   1.0511646942241E-11
(PID.TID 0000.0001) %MON trcstat_ptracer84_mean       =   4.5757728697494E-06
(PID.TID 0000.0001) %MON trcstat_ptracer84_sd         =   4.4471599232442E-05
(PID.TID 0000.0001) %MON trcstat_ptracer84_del2       =   5.5471533743294E-07
(PID.TID 0000.0001) %MON trcstat_ptracer85_max        =   4.7038797477736E-03
(PID.TID 0000.0001) %MON trcstat_ptracer85_min        =   1.0490701407452E-11
(PID.TID 0000.0001) %MON trcstat_ptracer85_mean       =   3.7885369606860E-06
(PID.TID 0000.0001) %MON trcstat_ptracer85_sd         =   3.7116675726630E-05
(PID.TID 0000.0001) %MON trcstat_ptracer85_del2       =   5.3237239031194E-07
(PID.TID 0000.0001) %MON trcstat_ptracer86_max        =   4.7037695597688E-03
(PID.TID 0000.0001) %MON trcstat_ptracer86_min        =   1.0490701407452E-11
(PID.TID 0000.0001) %MON trcstat_ptracer86_mean       =   4.1485321171289E-06
(PID.TID 0000.0001) %MON trcstat_ptracer86_sd         =   4.1362111439032E-05
(PID.TID 0000.0001) %MON trcstat_ptracer86_del2       =   5.5548810754831E-07
(PID.TID 0000.0001) %MON trcstat_ptracer87_max        =   4.7037695597687E-03
(PID.TID 0000.0001) %MON trcstat_ptracer87_min        =   1.0490701407452E-11
(PID.TID 0000.0001) %MON trcstat_ptracer87_mean       =   3.6920864663651E-06
(PID.TID 0000.0001) %MON trcstat_ptracer87_sd         =   3.6383709027264E-05
(PID.TID 0000.0001) %MON trcstat_ptracer87_del2       =   5.2824788840191E-07
(PID.TID 0000.0001) %MON trcstat_ptracer88_max        =   4.7758876096590E-03
(PID.TID 0000.0001) %MON trcstat_ptracer88_min        =   1.0511646942241E-11
(PID.TID 0000.0001) %MON trcstat_ptracer88_mean       =   4.1943935496349E-06
(PID.TID 0000.0001) %MON trcstat_ptracer88_sd         =   4.1005208015321E-05
(PID.TID 0000.0001) %MON trcstat_ptracer88_del2       =   5.4545863697140E-07
(PID.TID 0000.0001) %MON trcstat_ptracer89_max        =   4.7037695597688E-03
(PID.TID 0000.0001) %MON trcstat_ptracer89_min        =   1.0490701407452E-11
(PID.TID 0000.0001) %MON trcstat_ptracer89_mean       =   3.7619007860405E-06
(PID.TID 0000.0001) %MON trcstat_ptracer89_sd         =   3.7004175407296E-05
(PID.TID 0000.0001) %MON trcstat_ptracer89_del2       =   5.3122387888096E-07
(PID.TID 0000.0001) %MON trcstat_ptracer90_max        =   4.7038198753069E-03
(PID.TID 0000.0001) %MON trcstat_ptracer90_min        =   1.0490701407452E-11
(PID.TID 0000.0001) %MON trcstat_ptracer90_mean       =   3.6718429585101E-06
(PID.TID 0000.0001) %MON trcstat_ptracer90_sd         =   3.6374237941461E-05
(PID.TID 0000.0001) %MON trcstat_ptracer90_del2       =   5.2751075636345E-07
(PID.TID 0000.0001) %MON trcstat_ptracer91_max        =   4.7037695597687E-03
(PID.TID 0000.0001) %MON trcstat_ptracer91_min        =   1.0490701407452E-11
(PID.TID 0000.0001) %MON trcstat_ptracer91_mean       =   3.8465296845838E-06
(PID.TID 0000.0001) %MON trcstat_ptracer91_sd         =   3.7630495432786E-05
(PID.TID 0000.0001) %MON trcstat_ptracer91_del2       =   5.3212731145105E-07
(PID.TID 0000.0001) %MON trcstat_ptracer92_max        =   4.7037695597688E-03
(PID.TID 0000.0001) %MON trcstat_ptracer92_min        =   1.0490701407452E-11
(PID.TID 0000.0001) %MON trcstat_ptracer92_mean       =   4.6292439395886E-06
(PID.TID 0000.0001) %MON trcstat_ptracer92_sd         =   4.4503539054392E-05
(PID.TID 0000.0001) %MON trcstat_ptracer92_del2       =   5.4807140044563E-07
(PID.TID 0000.0001) %MON trcstat_ptracer93_max        =   4.6102613921280E-03
(PID.TID 0000.0001) %MON trcstat_ptracer93_min        =   1.0511646940573E-11
(PID.TID 0000.0001) %MON trcstat_ptracer93_mean       =   4.5172759361246E-06
(PID.TID 0000.0001) %MON trcstat_ptracer93_sd         =   4.4342964550063E-05
(PID.TID 0000.0001) %MON trcstat_ptracer93_del2       =   5.4918645188378E-07
(PID.TID 0000.0001) %MON trcstat_ptracer94_max        =   4.6102613921280E-03
(PID.TID 0000.0001) %MON trcstat_ptracer94_min        =   1.0511646940573E-11
(PID.TID 0000.0001) %MON trcstat_ptracer94_mean       =   4.1521918126175E-06
(PID.TID 0000.0001) %MON trcstat_ptracer94_sd         =   4.0131659267418E-05
(PID.TID 0000.0001) %MON trcstat_ptracer94_del2       =   5.2946333449168E-07
(PID.TID 0000.0001) %MON trcstat_ptracer95_max        =   4.7761659762304E-03
(PID.TID 0000.0001) %MON trcstat_ptracer95_min        =   1.0511646942241E-11
(PID.TID 0000.0001) %MON trcstat_ptracer95_mean       =   3.7745889449175E-06
(PID.TID 0000.0001) %MON trcstat_ptracer95_sd         =   3.7162095034901E-05
(PID.TID 0000.0001) %MON trcstat_ptracer95_del2       =   5.3795348329706E-07
(PID.TID 0000.0001) %MON trcstat_ptracer96_max        =   4.7037695597687E-03
(PID.TID 0000.0001) %MON trcstat_ptracer96_min        =   1.0490701407452E-11
(PID.TID 0000.0001) %MON trcstat_ptracer96_mean       =   4.1288548653457E-06
(PID.TID 0000.0001) %MON trcstat_ptracer96_sd         =   3.9302482802612E-05
(PID.TID 0000.0001) %MON trcstat_ptracer96_del2       =   5.3309922237540E-07
(PID.TID 0000.0001) %MON trcstat_ptracer97_max        =   4.7037695597688E-03
(PID.TID 0000.0001) %MON trcstat_ptracer97_min        =   1.0490701407452E-11
(PID.TID 0000.0001) %MON trcstat_ptracer97_mean       =   4.0404618213594E-06
(PID.TID 0000.0001) %MON trcstat_ptracer97_sd         =   4.0267221322563E-05
(PID.TID 0000.0001) %MON trcstat_ptracer97_del2       =   5.5390583598859E-07
(PID.TID 0000.0001) %MON trcstat_ptracer98_max        =   4.7037695597688E-03
(PID.TID 0000.0001) %MON trcstat_ptracer98_min        =   1.0490701407452E-11
(PID.TID 0000.0001) %MON trcstat_ptracer98_mean       =   4.0286560074845E-06
(PID.TID 0000.0001) %MON trcstat_ptracer98_sd         =   3.9298112603343E-05
(PID.TID 0000.0001) %MON trcstat_ptracer98_del2       =   5.3711132354777E-07
(PID.TID 0000.0001) %MON trcstat_ptracer99_max        =   4.7037695597688E-03
(PID.TID 0000.0001) %MON trcstat_ptracer99_min        =   1.0490701407452E-11
(PID.TID 0000.0001) %MON trcstat_ptracer99_mean       =   4.2416692295232E-06
(PID.TID 0000.0001) %MON trcstat_ptracer99_sd         =   4.2662305984854E-05
(PID.TID 0000.0001) %MON trcstat_ptracer99_del2       =   5.6096200857123E-07
(PID.TID 0000.0001) // =======================================================
(PID.TID 0000.0001) // End MONITOR ptracers field statistics
(PID.TID 0000.0001) // =======================================================
 cg2d: Sum(rhs),rhsMax =  -6.04723467745316E-07  7.55204046322845E+00
(PID.TID 0000.0001)                    cg2d_init_res =    1.61532326759945E-02
(PID.TID 0000.0001)                       cg2d_iters =    22
(PID.TID 0000.0001)                         cg2d_res =    7.02252539214965E-14
(PID.TID 0000.0001) // =======================================================
(PID.TID 0000.0001) // Begin MONITOR dynamic field statistics
(PID.TID 0000.0001) // =======================================================
(PID.TID 0000.0001) %MON time_tsnumber                =               5644803
(PID.TID 0000.0001) %MON time_secondsf                =   2.4385548960000E+11
(PID.TID 0000.0001) %MON dynstat_eta_max              =   9.3627511411144E-01
(PID.TID 0000.0001) %MON dynstat_eta_min              =  -1.7303081983850E+00
(PID.TID 0000.0001) %MON dynstat_eta_mean             =   1.6246248406942E-10
(PID.TID 0000.0001) %MON dynstat_eta_sd               =   6.5166423101285E-01
(PID.TID 0000.0001) %MON dynstat_eta_del2             =   9.2978030837644E-04
(PID.TID 0000.0001) %MON dynstat_uvel_max             =   1.5527053826384E-01
(PID.TID 0000.0001) %MON dynstat_uvel_min             =  -1.8458253844748E-01
(PID.TID 0000.0001) %MON dynstat_uvel_mean            =   2.9497278082227E-03
(PID.TID 0000.0001) %MON dynstat_uvel_sd              =   1.3886039880534E-02
(PID.TID 0000.0001) %MON dynstat_uvel_del2            =   3.8121351024632E-05
(PID.TID 0000.0001) %MON dynstat_vvel_max             =   1.1192165236508E-01
(PID.TID 0000.0001) %MON dynstat_vvel_min             =  -1.5050999023495E-01
(PID.TID 0000.0001) %MON dynstat_vvel_mean            =  -1.9057176606635E-04
(PID.TID 0000.0001) %MON dynstat_vvel_sd              =   6.3535592977871E-03
(PID.TID 0000.0001) %MON dynstat_vvel_del2            =   2.6604415547364E-05
(PID.TID 0000.0001) %MON dynstat_wvel_max             =   4.3069881910661E-05
(PID.TID 0000.0001) %MON dynstat_wvel_min             =  -6.4933649181609E-05
(PID.TID 0000.0001) %MON dynstat_wvel_mean            =  -2.1115974767072E-22
(PID.TID 0000.0001) %MON dynstat_wvel_sd              =   1.9024936037943E-06
(PID.TID 0000.0001) %MON dynstat_wvel_del2            =   1.3090179011923E-08
(PID.TID 0000.0001) %MON dynstat_theta_max            =   2.9958612940493E+01
(PID.TID 0000.0001) %MON dynstat_theta_min            =  -2.1380939415309E+00
(PID.TID 0000.0001) %MON dynstat_theta_mean           =   3.7552531475465E+00
(PID.TID 0000.0001) %MON dynstat_theta_sd             =   5.1498964516695E+00
(PID.TID 0000.0001) %MON dynstat_theta_del2           =   2.2493972621528E-03
(PID.TID 0000.0001) %MON dynstat_salt_max             =   3.7553303036340E+01
(PID.TID 0000.0001) %MON dynstat_salt_min             =   3.1355025863735E+01
(PID.TID 0000.0001) %MON dynstat_salt_mean            =   3.4543283510303E+01
(PID.TID 0000.0001) %MON dynstat_salt_sd              =   3.5868211106621E-01
(PID.TID 0000.0001) %MON dynstat_salt_del2            =   3.8170524704096E-04
(PID.TID 0000.0001) %MON forcing_qnet_max             =   4.5157683105469E+02
(PID.TID 0000.0001) %MON forcing_qnet_min             =  -2.1235058186849E+02
(PID.TID 0000.0001) %MON forcing_qnet_mean            =  -1.7624071088847E+01
(PID.TID 0000.0001) %MON forcing_qnet_sd              =   1.1579672925848E+02
(PID.TID 0000.0001) %MON forcing_qnet_del2            =   2.7323208045697E-01
(PID.TID 0000.0001) %MON forcing_qsw_max              =   0.0000000000000E+00
(PID.TID 0000.0001) %MON forcing_qsw_min              =   0.0000000000000E+00
(PID.TID 0000.0001) %MON forcing_qsw_mean             =   0.0000000000000E+00
(PID.TID 0000.0001) %MON forcing_qsw_sd               =   0.0000000000000E+00
(PID.TID 0000.0001) %MON forcing_qsw_del2             =   0.0000000000000E+00
(PID.TID 0000.0001) %MON forcing_empmr_max            =   6.9206222512719E-05
(PID.TID 0000.0001) %MON forcing_empmr_min            =  -1.5544422772962E-04
(PID.TID 0000.0001) %MON forcing_empmr_mean           =   1.2460352661810E-14
(PID.TID 0000.0001) %MON forcing_empmr_sd             =   2.4700019777611E-05
(PID.TID 0000.0001) %MON forcing_empmr_del2           =   1.1591736879229E-07
(PID.TID 0000.0001) %MON forcing_fu_max               =   2.6907762686412E-01
(PID.TID 0000.0001) %MON forcing_fu_min               =  -1.5713627139727E-01
(PID.TID 0000.0001) %MON forcing_fu_mean              =   1.7813586480810E-02
(PID.TID 0000.0001) %MON forcing_fu_sd                =   8.9604501838056E-02
(PID.TID 0000.0001) %MON forcing_fu_del2              =   2.4838319211938E-04
(PID.TID 0000.0001) %MON forcing_fv_max               =   1.9811773399512E-01
(PID.TID 0000.0001) %MON forcing_fv_min               =  -1.5963796973228E-01
(PID.TID 0000.0001) %MON forcing_fv_mean              =  -6.4134326874516E-03
(PID.TID 0000.0001) %MON forcing_fv_sd                =   4.4374188740913E-02
(PID.TID 0000.0001) %MON forcing_fv_del2              =   1.7989439238480E-04
(PID.TID 0000.0001) %MON advcfl_uvel_max              =   4.0096976349648E-02
(PID.TID 0000.0001) %MON advcfl_vvel_max              =   2.0794081573419E-02
(PID.TID 0000.0001) %MON advcfl_wvel_max              =   1.3125757740579E-02
(PID.TID 0000.0001) %MON advcfl_W_hf_max              =   1.5469643051396E-02
(PID.TID 0000.0001) %MON pe_b_mean                    =   5.8619724244050E-04
(PID.TID 0000.0001) %MON ke_max                       =   1.7866696361140E-02
(PID.TID 0000.0001) %MON ke_mean                      =   1.1145686354723E-04
(PID.TID 0000.0001) %MON ke_vol                       =   1.1739855207380E+18
(PID.TID 0000.0001) %MON vort_r_min                   =  -5.5656497615471E-07
(PID.TID 0000.0001) %MON vort_r_max                   =   6.2144325835223E-07
(PID.TID 0000.0001) %MON vort_a_mean                  =  -2.5798915502265E-05
(PID.TID 0000.0001) %MON vort_a_sd                    =   7.3558772971964E-05
(PID.TID 0000.0001) %MON vort_p_mean                  =  -3.0020960747216E-05
(PID.TID 0000.0001) %MON vort_p_sd                    =   9.8090576983569E-05
(PID.TID 0000.0001) %MON surfExpan_theta_mean         =  -2.4900710895048E-07
(PID.TID 0000.0001) %MON surfExpan_salt_mean          =   2.6665901662147E-08
(PID.TID 0000.0001) // =======================================================
(PID.TID 0000.0001) // End MONITOR dynamic field statistics
(PID.TID 0000.0001) // =======================================================
(PID.TID 0000.0001) // =======================================================
(PID.TID 0000.0001) // Begin MONITOR ptracer field statistics
(PID.TID 0000.0001) // =======================================================
(PID.TID 0000.0001) %MON trcstat_ptracer01_max        =   3.4906018377276E+00
(PID.TID 0000.0001) %MON trcstat_ptracer01_min        =   4.6740289097775E-02
(PID.TID 0000.0001) %MON trcstat_ptracer01_mean       =   2.1106150423510E+00
(PID.TID 0000.0001) %MON trcstat_ptracer01_sd         =   6.4919534243403E-01
(PID.TID 0000.0001) %MON trcstat_ptracer01_del2       =   3.7199748259128E-04
(PID.TID 0000.0001) %MON trcstat_ptracer02_max        =   5.5520297433733E+01
(PID.TID 0000.0001) %MON trcstat_ptracer02_min        =   2.3764048315558E-04
(PID.TID 0000.0001) %MON trcstat_ptracer02_mean       =   3.0322046652761E+01
(PID.TID 0000.0001) %MON trcstat_ptracer02_sd         =   9.3039017857648E+00
(PID.TID 0000.0001) %MON trcstat_ptracer02_del2       =   7.1672739110375E-03
(PID.TID 0000.0001) %MON trcstat_ptracer03_max        =   1.3877566735731E-03
(PID.TID 0000.0001) %MON trcstat_ptracer03_min        =   3.7979105163912E-06
(PID.TID 0000.0001) %MON trcstat_ptracer03_mean       =   3.2963154700319E-04
(PID.TID 0000.0001) %MON trcstat_ptracer03_sd         =   2.1703160122141E-04
(PID.TID 0000.0001) %MON trcstat_ptracer03_del2       =   2.1184116270974E-07
(PID.TID 0000.0001) %MON trcstat_ptracer04_max        =   1.8839939925558E+02
(PID.TID 0000.0001) %MON trcstat_ptracer04_min        =   4.2393798103084E-01
(PID.TID 0000.0001) %MON trcstat_ptracer04_mean       =   8.3739841615501E+01
(PID.TID 0000.0001) %MON trcstat_ptracer04_sd         =   4.9672316053200E+01
(PID.TID 0000.0001) %MON trcstat_ptracer04_del2       =   1.6747709815685E-02
(PID.TID 0000.0001) %MON trcstat_ptracer05_max        =   1.2774895982062E-01
(PID.TID 0000.0001) %MON trcstat_ptracer05_min        =  -1.5365340542616E-04
(PID.TID 0000.0001) %MON trcstat_ptracer05_mean       =   1.0882610739336E-03
(PID.TID 0000.0001) %MON trcstat_ptracer05_sd         =   6.8821768519729E-03
(PID.TID 0000.0001) %MON trcstat_ptracer05_del2       =   2.0079143035911E-05
(PID.TID 0000.0001) %MON trcstat_ptracer06_max        =   2.0439833571300E+00
(PID.TID 0000.0001) %MON trcstat_ptracer06_min        =  -2.4584544868185E-03
(PID.TID 0000.0001) %MON trcstat_ptracer06_mean       =   1.7412177182938E-02
(PID.TID 0000.0001) %MON trcstat_ptracer06_sd         =   1.1011482963157E-01
(PID.TID 0000.0001) %MON trcstat_ptracer06_del2       =   3.2126628857458E-04
(PID.TID 0000.0001) %MON trcstat_ptracer07_max        =   8.2444704498346E-05
(PID.TID 0000.0001) %MON trcstat_ptracer07_min        =  -1.2901383901405E-07
(PID.TID 0000.0001) %MON trcstat_ptracer07_mean       =   3.1869308914168E-07
(PID.TID 0000.0001) %MON trcstat_ptracer07_sd         =   2.2075112346168E-06
(PID.TID 0000.0001) %MON trcstat_ptracer07_del2       =   9.1881232849507E-09
(PID.TID 0000.0001) %MON trcstat_ptracer08_max        =   6.7568828858481E-02
(PID.TID 0000.0001) %MON trcstat_ptracer08_min        =   1.0760239626472E-10
(PID.TID 0000.0001) %MON trcstat_ptracer08_mean       =   3.9782440943155E-05
(PID.TID 0000.0001) %MON trcstat_ptracer08_sd         =   4.3419973192267E-04
(PID.TID 0000.0001) %MON trcstat_ptracer08_del2       =   7.1298511942490E-06
(PID.TID 0000.0001) %MON trcstat_ptracer09_max        =   1.0811012617357E+00
(PID.TID 0000.0001) %MON trcstat_ptracer09_min        =   1.7216383402355E-09
(PID.TID 0000.0001) %MON trcstat_ptracer09_mean       =   6.3651905509048E-04
(PID.TID 0000.0001) %MON trcstat_ptracer09_sd         =   6.9471957107627E-03
(PID.TID 0000.0001) %MON trcstat_ptracer09_del2       =   1.1407761910798E-04
(PID.TID 0000.0001) %MON trcstat_ptracer10_max        =   1.4723417909656E-04
(PID.TID 0000.0001) %MON trcstat_ptracer10_min        =   2.6900599450820E-13
(PID.TID 0000.0001) %MON trcstat_ptracer10_mean       =   9.6807087303181E-08
(PID.TID 0000.0001) %MON trcstat_ptracer10_sd         =   1.0096825889004E-06
(PID.TID 0000.0001) %MON trcstat_ptracer10_del2       =   1.5820081497665E-08
(PID.TID 0000.0001) %MON trcstat_ptracer11_max        =   4.3029798701273E-01
(PID.TID 0000.0001) %MON trcstat_ptracer11_min        =   8.6081916894397E-10
(PID.TID 0000.0001) %MON trcstat_ptracer11_mean       =   3.0481161023839E-04
(PID.TID 0000.0001) %MON trcstat_ptracer11_sd         =   3.0908424715685E-03
(PID.TID 0000.0001) %MON trcstat_ptracer11_del2       =   4.6882149806394E-05
(PID.TID 0000.0001) %MON trcstat_ptracer12_max        =   6.9413186026476E-02
(PID.TID 0000.0001) %MON trcstat_ptracer12_min        =   1.0760239625633E-10
(PID.TID 0000.0001) %MON trcstat_ptracer12_mean       =   3.9893536542265E-05
(PID.TID 0000.0001) %MON trcstat_ptracer12_sd         =   4.3847828804107E-04
(PID.TID 0000.0001) %MON trcstat_ptracer12_del2       =   7.2735906957349E-06
(PID.TID 0000.0001) %MON trcstat_ptracer13_max        =   1.1106109764236E+00
(PID.TID 0000.0001) %MON trcstat_ptracer13_min        =   1.7216383401013E-09
(PID.TID 0000.0001) %MON trcstat_ptracer13_mean       =   6.3829658467624E-04
(PID.TID 0000.0001) %MON trcstat_ptracer13_sd         =   7.0156526086571E-03
(PID.TID 0000.0001) %MON trcstat_ptracer13_del2       =   1.1637745113176E-04
(PID.TID 0000.0001) %MON trcstat_ptracer14_max        =   1.4907853626456E-04
(PID.TID 0000.0001) %MON trcstat_ptracer14_min        =   2.6900599449982E-13
(PID.TID 0000.0001) %MON trcstat_ptracer14_mean       =   9.6918182902292E-08
(PID.TID 0000.0001) %MON trcstat_ptracer14_sd         =   1.0138226981359E-06
(PID.TID 0000.0001) %MON trcstat_ptracer14_del2       =   1.5961108104782E-08
(PID.TID 0000.0001) %MON trcstat_ptracer15_max        =   5.0223077145539E-01
(PID.TID 0000.0001) %MON trcstat_ptracer15_min        =   8.6081916956789E-10
(PID.TID 0000.0001) %MON trcstat_ptracer15_mean       =   3.1302805779764E-04
(PID.TID 0000.0001) %MON trcstat_ptracer15_sd         =   3.3271333384303E-03
(PID.TID 0000.0001) %MON trcstat_ptracer15_del2       =   5.3337273110090E-05
(PID.TID 0000.0001) %MON trcstat_ptracer16_max        =   1.8589784514080E-01
(PID.TID 0000.0001) %MON trcstat_ptracer16_min        =   8.4058777304484E-08
(PID.TID 0000.0001) %MON trcstat_ptracer16_mean       =   1.6650576691937E-03
(PID.TID 0000.0001) %MON trcstat_ptracer16_sd         =   3.5808279345175E-03
(PID.TID 0000.0001) %MON trcstat_ptracer16_del2       =   1.6892159814266E-05
(PID.TID 0000.0001) %MON trcstat_ptracer17_max        =   2.9743655222527E+00
(PID.TID 0000.0001) %MON trcstat_ptracer17_min        =   1.3449404368717E-06
(PID.TID 0000.0001) %MON trcstat_ptracer17_mean       =   2.6640922707099E-02
(PID.TID 0000.0001) %MON trcstat_ptracer17_sd         =   5.7293246952279E-02
(PID.TID 0000.0001) %MON trcstat_ptracer17_del2       =   2.7027455702826E-04
(PID.TID 0000.0001) %MON trcstat_ptracer18_max        =   1.9295924773464E-04
(PID.TID 0000.0001) %MON trcstat_ptracer18_min        =   1.3562124038935E-11
(PID.TID 0000.0001) %MON trcstat_ptracer18_mean       =   7.4798237551175E-07
(PID.TID 0000.0001) %MON trcstat_ptracer18_sd         =   2.3604452769867E-06
(PID.TID 0000.0001) %MON trcstat_ptracer18_del2       =   1.2786761893354E-08
(PID.TID 0000.0001) %MON trcstat_ptracer19_max        =   4.0431770173247E+01
(PID.TID 0000.0001) %MON trcstat_ptracer19_min        =  -1.0267706131824E-01
(PID.TID 0000.0001) %MON trcstat_ptracer19_mean       =   1.5106451747889E-01
(PID.TID 0000.0001) %MON trcstat_ptracer19_sd         =   4.0958354541328E-01
(PID.TID 0000.0001) %MON trcstat_ptracer19_del2       =   2.1490664120857E-03
(PID.TID 0000.0001) %MON trcstat_ptracer20_max        =   3.0724431666190E-01
(PID.TID 0000.0001) %MON trcstat_ptracer20_min        =   4.3931156844401E-08
(PID.TID 0000.0001) %MON trcstat_ptracer20_mean       =   3.1119972433128E-03
(PID.TID 0000.0001) %MON trcstat_ptracer20_sd         =   1.8711076403498E-02
(PID.TID 0000.0001) %MON trcstat_ptracer20_del2       =   6.2745899417639E-05
(PID.TID 0000.0001) %MON trcstat_ptracer21_max        =   2.5528662879143E+00
(PID.TID 0000.0001) %MON trcstat_ptracer21_min        =   2.7599211904881E-06
(PID.TID 0000.0001) %MON trcstat_ptracer21_mean       =   3.0464959893995E-02
(PID.TID 0000.0001) %MON trcstat_ptracer21_sd         =   8.9627608441510E-02
(PID.TID 0000.0001) %MON trcstat_ptracer21_del2       =   1.2399293633330E-04
(PID.TID 0000.0001) %MON trcstat_ptracer22_max        =   4.0164082377650E-03
(PID.TID 0000.0001) %MON trcstat_ptracer22_min        =   1.0007416014670E-11
(PID.TID 0000.0001) %MON trcstat_ptracer22_mean       =   3.7372770813537E-06
(PID.TID 0000.0001) %MON trcstat_ptracer22_sd         =   3.5934795541971E-05
(PID.TID 0000.0001) %MON trcstat_ptracer22_del2       =   4.7997447001077E-07
(PID.TID 0000.0001) %MON trcstat_ptracer23_max        =   4.1439578326390E-03
(PID.TID 0000.0001) %MON trcstat_ptracer23_min        =   9.9775214768661E-12
(PID.TID 0000.0001) %MON trcstat_ptracer23_mean       =   3.8352511686531E-06
(PID.TID 0000.0001) %MON trcstat_ptracer23_sd         =   3.7192497938579E-05
(PID.TID 0000.0001) %MON trcstat_ptracer23_del2       =   4.8207034846829E-07
(PID.TID 0000.0001) %MON trcstat_ptracer24_max        =   4.2517671575237E-03
(PID.TID 0000.0001) %MON trcstat_ptracer24_min        =   1.0007416017019E-11
(PID.TID 0000.0001) %MON trcstat_ptracer24_mean       =   3.7533574083529E-06
(PID.TID 0000.0001) %MON trcstat_ptracer24_sd         =   3.6337144626433E-05
(PID.TID 0000.0001) %MON trcstat_ptracer24_del2       =   4.9508265529002E-07
(PID.TID 0000.0001) %MON trcstat_ptracer25_max        =   4.1439578326390E-03
(PID.TID 0000.0001) %MON trcstat_ptracer25_min        =   9.9775214768661E-12
(PID.TID 0000.0001) %MON trcstat_ptracer25_mean       =   3.5969472074578E-06
(PID.TID 0000.0001) %MON trcstat_ptracer25_sd         =   3.4566693145650E-05
(PID.TID 0000.0001) %MON trcstat_ptracer25_del2       =   4.7406341840813E-07
(PID.TID 0000.0001) %MON trcstat_ptracer26_max        =   4.1439578326392E-03
(PID.TID 0000.0001) %MON trcstat_ptracer26_min        =   9.9775214768661E-12
(PID.TID 0000.0001) %MON trcstat_ptracer26_mean       =   4.6163825252753E-06
(PID.TID 0000.0001) %MON trcstat_ptracer26_sd         =   4.8161439051497E-05
(PID.TID 0000.0001) %MON trcstat_ptracer26_del2       =   5.2965166323791E-07
(PID.TID 0000.0001) %MON trcstat_ptracer27_max        =   4.1439578326390E-03
(PID.TID 0000.0001) %MON trcstat_ptracer27_min        =   9.9775214768661E-12
(PID.TID 0000.0001) %MON trcstat_ptracer27_mean       =   3.9345542931498E-06
(PID.TID 0000.0001) %MON trcstat_ptracer27_sd         =   3.7777403537362E-05
(PID.TID 0000.0001) %MON trcstat_ptracer27_del2       =   4.8433720153613E-07
(PID.TID 0000.0001) %MON trcstat_ptracer28_max        =   4.2506363079551E-03
(PID.TID 0000.0001) %MON trcstat_ptracer28_min        =   1.0007416017019E-11
(PID.TID 0000.0001) %MON trcstat_ptracer28_mean       =   4.4897933224958E-06
(PID.TID 0000.0001) %MON trcstat_ptracer28_sd         =   4.5238044988920E-05
(PID.TID 0000.0001) %MON trcstat_ptracer28_del2       =   5.1661248489914E-07
(PID.TID 0000.0001) %MON trcstat_ptracer29_max        =   4.1439578326390E-03
(PID.TID 0000.0001) %MON trcstat_ptracer29_min        =   9.9775214768661E-12
(PID.TID 0000.0001) %MON trcstat_ptracer29_mean       =   3.7173954333208E-06
(PID.TID 0000.0001) %MON trcstat_ptracer29_sd         =   3.6106891859106E-05
(PID.TID 0000.0001) %MON trcstat_ptracer29_del2       =   4.8307131141245E-07
(PID.TID 0000.0001) %MON trcstat_ptracer30_max        =   4.1439578326390E-03
(PID.TID 0000.0001) %MON trcstat_ptracer30_min        =   9.9775214768661E-12
(PID.TID 0000.0001) %MON trcstat_ptracer30_mean       =   3.8040473685418E-06
(PID.TID 0000.0001) %MON trcstat_ptracer30_sd         =   3.6860816944211E-05
(PID.TID 0000.0001) %MON trcstat_ptracer30_del2       =   4.8213963764458E-07
(PID.TID 0000.0001) %MON trcstat_ptracer31_max        =   4.0150543630309E-03
(PID.TID 0000.0001) %MON trcstat_ptracer31_min        =   1.0007416014670E-11
(PID.TID 0000.0001) %MON trcstat_ptracer31_mean       =   3.9485343084788E-06
(PID.TID 0000.0001) %MON trcstat_ptracer31_sd         =   3.7994016067437E-05
(PID.TID 0000.0001) %MON trcstat_ptracer31_del2       =   4.7498633489298E-07
(PID.TID 0000.0001) %MON trcstat_ptracer32_max        =   4.1439578326390E-03
(PID.TID 0000.0001) %MON trcstat_ptracer32_min        =   9.9775214768661E-12
(PID.TID 0000.0001) %MON trcstat_ptracer32_mean       =   4.4191731189533E-06
(PID.TID 0000.0001) %MON trcstat_ptracer32_sd         =   4.6002783102302E-05
(PID.TID 0000.0001) %MON trcstat_ptracer32_del2       =   5.3805110740367E-07
(PID.TID 0000.0001) %MON trcstat_ptracer33_max        =   4.1439578326390E-03
(PID.TID 0000.0001) %MON trcstat_ptracer33_min        =   9.9775214768661E-12
(PID.TID 0000.0001) %MON trcstat_ptracer33_mean       =   3.7421447021532E-06
(PID.TID 0000.0001) %MON trcstat_ptracer33_sd         =   3.5837077094163E-05
(PID.TID 0000.0001) %MON trcstat_ptracer33_del2       =   4.7921371933465E-07
(PID.TID 0000.0001) %MON trcstat_ptracer34_max        =   4.1439578326390E-03
(PID.TID 0000.0001) %MON trcstat_ptracer34_min        =   9.9775214768661E-12
(PID.TID 0000.0001) %MON trcstat_ptracer34_mean       =   3.5413049614866E-06
(PID.TID 0000.0001) %MON trcstat_ptracer34_sd         =   3.4115175339326E-05
(PID.TID 0000.0001) %MON trcstat_ptracer34_del2       =   4.7189757442440E-07
(PID.TID 0000.0001) %MON trcstat_ptracer35_max        =   4.2506363079550E-03
(PID.TID 0000.0001) %MON trcstat_ptracer35_min        =   1.0007416017019E-11
(PID.TID 0000.0001) %MON trcstat_ptracer35_mean       =   5.8104286917869E-06
(PID.TID 0000.0001) %MON trcstat_ptracer35_sd         =   5.7308448080335E-05
(PID.TID 0000.0001) %MON trcstat_ptracer35_del2       =   5.1413216218628E-07
(PID.TID 0000.0001) %MON trcstat_ptracer36_max        =   4.0150053270510E-03
(PID.TID 0000.0001) %MON trcstat_ptracer36_min        =   1.0007416014670E-11
(PID.TID 0000.0001) %MON trcstat_ptracer36_mean       =   5.1985810510909E-06
(PID.TID 0000.0001) %MON trcstat_ptracer36_sd         =   5.3218362476964E-05
(PID.TID 0000.0001) %MON trcstat_ptracer36_del2       =   5.1106759603728E-07
(PID.TID 0000.0001) %MON trcstat_ptracer37_max        =   4.1440111237015E-03
(PID.TID 0000.0001) %MON trcstat_ptracer37_min        =   9.9775214768661E-12
(PID.TID 0000.0001) %MON trcstat_ptracer37_mean       =   3.4805332641197E-06
(PID.TID 0000.0001) %MON trcstat_ptracer37_sd         =   3.3571168594378E-05
(PID.TID 0000.0001) %MON trcstat_ptracer37_del2       =   4.6989845188825E-07
(PID.TID 0000.0001) %MON trcstat_ptracer38_max        =   4.0150053270510E-03
(PID.TID 0000.0001) %MON trcstat_ptracer38_min        =   1.0007416014670E-11
(PID.TID 0000.0001) %MON trcstat_ptracer38_mean       =   6.4561825550073E-06
(PID.TID 0000.0001) %MON trcstat_ptracer38_sd         =   7.0085567719792E-05
(PID.TID 0000.0001) %MON trcstat_ptracer38_del2       =   5.5093146411001E-07
(PID.TID 0000.0001) %MON trcstat_ptracer39_max        =   4.0150053270510E-03
(PID.TID 0000.0001) %MON trcstat_ptracer39_min        =   1.0007416014670E-11
(PID.TID 0000.0001) %MON trcstat_ptracer39_mean       =   5.4740489942456E-06
(PID.TID 0000.0001) %MON trcstat_ptracer39_sd         =   5.6678317918407E-05
(PID.TID 0000.0001) %MON trcstat_ptracer39_del2       =   5.3356742180754E-07
(PID.TID 0000.0001) %MON trcstat_ptracer40_max        =   4.1439578326390E-03
(PID.TID 0000.0001) %MON trcstat_ptracer40_min        =   9.9775214768661E-12
(PID.TID 0000.0001) %MON trcstat_ptracer40_mean       =   4.4106062356450E-06
(PID.TID 0000.0001) %MON trcstat_ptracer40_sd         =   4.4707806721236E-05
(PID.TID 0000.0001) %MON trcstat_ptracer40_del2       =   5.2008565801091E-07
(PID.TID 0000.0001) %MON trcstat_ptracer41_max        =   4.1439907054610E-03
(PID.TID 0000.0001) %MON trcstat_ptracer41_min        =   9.9775214768661E-12
(PID.TID 0000.0001) %MON trcstat_ptracer41_mean       =   3.6531498266132E-06
(PID.TID 0000.0001) %MON trcstat_ptracer41_sd         =   3.5268586438670E-05
(PID.TID 0000.0001) %MON trcstat_ptracer41_del2       =   4.8151985216345E-07
(PID.TID 0000.0001) %MON trcstat_ptracer42_max        =   4.1439578326390E-03
(PID.TID 0000.0001) %MON trcstat_ptracer42_min        =   9.9775214768661E-12
(PID.TID 0000.0001) %MON trcstat_ptracer42_mean       =   3.5080347259205E-06
(PID.TID 0000.0001) %MON trcstat_ptracer42_sd         =   3.3823226814530E-05
(PID.TID 0000.0001) %MON trcstat_ptracer42_del2       =   4.7069014340030E-07
(PID.TID 0000.0001) %MON trcstat_ptracer43_max        =   4.0150053270511E-03
(PID.TID 0000.0001) %MON trcstat_ptracer43_min        =   1.0007416014670E-11
(PID.TID 0000.0001) %MON trcstat_ptracer43_mean       =   6.2606493296794E-06
(PID.TID 0000.0001) %MON trcstat_ptracer43_sd         =   6.8903036821240E-05
(PID.TID 0000.0001) %MON trcstat_ptracer43_del2       =   5.5863324544177E-07
(PID.TID 0000.0001) %MON trcstat_ptracer44_max        =   4.1439578326390E-03
(PID.TID 0000.0001) %MON trcstat_ptracer44_min        =   9.9775214768661E-12
(PID.TID 0000.0001) %MON trcstat_ptracer44_mean       =   3.7725030707726E-06
(PID.TID 0000.0001) %MON trcstat_ptracer44_sd         =   3.6514263153335E-05
(PID.TID 0000.0001) %MON trcstat_ptracer44_del2       =   4.8083783145875E-07
(PID.TID 0000.0001) %MON trcstat_ptracer45_max        =   4.1439578326390E-03
(PID.TID 0000.0001) %MON trcstat_ptracer45_min        =   9.9775214768661E-12
(PID.TID 0000.0001) %MON trcstat_ptracer45_mean       =   3.7257963272784E-06
(PID.TID 0000.0001) %MON trcstat_ptracer45_sd         =   3.5632782127450E-05
(PID.TID 0000.0001) %MON trcstat_ptracer45_del2       =   4.7822505946411E-07
(PID.TID 0000.0001) %MON trcstat_ptracer46_max        =   4.1439578326390E-03
(PID.TID 0000.0001) %MON trcstat_ptracer46_min        =   9.9775214768661E-12
(PID.TID 0000.0001) %MON trcstat_ptracer46_mean       =   3.7284186641125E-06
(PID.TID 0000.0001) %MON trcstat_ptracer46_sd         =   3.6248165431144E-05
(PID.TID 0000.0001) %MON trcstat_ptracer46_del2       =   4.8383434140725E-07
(PID.TID 0000.0001) %MON trcstat_ptracer47_max        =   4.1439578326390E-03
(PID.TID 0000.0001) %MON trcstat_ptracer47_min        =   9.9775214768661E-12
(PID.TID 0000.0001) %MON trcstat_ptracer47_mean       =   5.1715276956041E-06
(PID.TID 0000.0001) %MON trcstat_ptracer47_sd         =   5.2110541756680E-05
(PID.TID 0000.0001) %MON trcstat_ptracer47_del2       =   5.1928755146518E-07
(PID.TID 0000.0001) %MON trcstat_ptracer48_max        =   4.0158896056262E-03
(PID.TID 0000.0001) %MON trcstat_ptracer48_min        =   1.0007416014670E-11
(PID.TID 0000.0001) %MON trcstat_ptracer48_mean       =   3.6141044066019E-06
(PID.TID 0000.0001) %MON trcstat_ptracer48_sd         =   3.4509393096769E-05
(PID.TID 0000.0001) %MON trcstat_ptracer48_del2       =   4.6810133963350E-07
(PID.TID 0000.0001) %MON trcstat_ptracer49_max        =   4.0150053270509E-03
(PID.TID 0000.0001) %MON trcstat_ptracer49_min        =   1.0007416014670E-11
(PID.TID 0000.0001) %MON trcstat_ptracer49_mean       =   4.2583106220257E-06
(PID.TID 0000.0001) %MON trcstat_ptracer49_sd         =   3.9670234281229E-05
(PID.TID 0000.0001) %MON trcstat_ptracer49_del2       =   4.7083469145365E-07
(PID.TID 0000.0001) %MON trcstat_ptracer50_max        =   4.1447405928093E-03
(PID.TID 0000.0001) %MON trcstat_ptracer50_min        =   9.9775214768661E-12
(PID.TID 0000.0001) %MON trcstat_ptracer50_mean       =   3.5854839034707E-06
(PID.TID 0000.0001) %MON trcstat_ptracer50_sd         =   3.4672803369643E-05
(PID.TID 0000.0001) %MON trcstat_ptracer50_del2       =   4.7841968999528E-07
(PID.TID 0000.0001) %MON trcstat_ptracer51_max        =   4.1439578326390E-03
(PID.TID 0000.0001) %MON trcstat_ptracer51_min        =   9.9775214768661E-12
(PID.TID 0000.0001) %MON trcstat_ptracer51_mean       =   3.6482028880602E-06
(PID.TID 0000.0001) %MON trcstat_ptracer51_sd         =   3.4955012128634E-05
(PID.TID 0000.0001) %MON trcstat_ptracer51_del2       =   4.7685861061404E-07
(PID.TID 0000.0001) %MON trcstat_ptracer52_max        =   4.2506363079550E-03
(PID.TID 0000.0001) %MON trcstat_ptracer52_min        =   1.0007416017019E-11
(PID.TID 0000.0001) %MON trcstat_ptracer52_mean       =   4.1647883125028E-06
(PID.TID 0000.0001) %MON trcstat_ptracer52_sd         =   4.0573649393137E-05
(PID.TID 0000.0001) %MON trcstat_ptracer52_del2       =   4.9556270382072E-07
(PID.TID 0000.0001) %MON trcstat_ptracer53_max        =   4.1439578326390E-03
(PID.TID 0000.0001) %MON trcstat_ptracer53_min        =   9.9775214768661E-12
(PID.TID 0000.0001) %MON trcstat_ptracer53_mean       =   4.0966380741614E-06
(PID.TID 0000.0001) %MON trcstat_ptracer53_sd         =   4.0517866756011E-05
(PID.TID 0000.0001) %MON trcstat_ptracer53_del2       =   5.0693304920012E-07
(PID.TID 0000.0001) %MON trcstat_ptracer54_max        =   4.1439578326390E-03
(PID.TID 0000.0001) %MON trcstat_ptracer54_min        =   9.9775214768661E-12
(PID.TID 0000.0001) %MON trcstat_ptracer54_mean       =   3.7355704080524E-06
(PID.TID 0000.0001) %MON trcstat_ptracer54_sd         =   3.6368651903812E-05
(PID.TID 0000.0001) %MON trcstat_ptracer54_del2       =   4.8358238859153E-07
(PID.TID 0000.0001) %MON trcstat_ptracer55_max        =   4.0150053270509E-03
(PID.TID 0000.0001) %MON trcstat_ptracer55_min        =   1.0007416014670E-11
(PID.TID 0000.0001) %MON trcstat_ptracer55_mean       =   4.1246757706525E-06
(PID.TID 0000.0001) %MON trcstat_ptracer55_sd         =   3.7452818577404E-05
(PID.TID 0000.0001) %MON trcstat_ptracer55_del2       =   4.6260564390427E-07
(PID.TID 0000.0001) %MON trcstat_ptracer56_max        =   4.0150053270510E-03
(PID.TID 0000.0001) %MON trcstat_ptracer56_min        =   1.0007416014670E-11
(PID.TID 0000.0001) %MON trcstat_ptracer56_mean       =   5.0619389853616E-06
(PID.TID 0000.0001) %MON trcstat_ptracer56_sd         =   5.0961494909905E-05
(PID.TID 0000.0001) %MON trcstat_ptracer56_del2       =   5.2230590813311E-07
(PID.TID 0000.0001) %MON trcstat_ptracer57_max        =   4.1439578326392E-03
(PID.TID 0000.0001) %MON trcstat_ptracer57_min        =   9.9775214768661E-12
(PID.TID 0000.0001) %MON trcstat_ptracer57_mean       =   4.7596556496080E-06
(PID.TID 0000.0001) %MON trcstat_ptracer57_sd         =   4.8217348205106E-05
(PID.TID 0000.0001) %MON trcstat_ptracer57_del2       =   5.1388693526404E-07
(PID.TID 0000.0001) %MON trcstat_ptracer58_max        =   4.1439578326391E-03
(PID.TID 0000.0001) %MON trcstat_ptracer58_min        =   9.9775214768661E-12
(PID.TID 0000.0001) %MON trcstat_ptracer58_mean       =   3.6900970288971E-06
(PID.TID 0000.0001) %MON trcstat_ptracer58_sd         =   3.5853826210616E-05
(PID.TID 0000.0001) %MON trcstat_ptracer58_del2       =   4.8288596446568E-07
(PID.TID 0000.0001) %MON trcstat_ptracer59_max        =   4.2506363079550E-03
(PID.TID 0000.0001) %MON trcstat_ptracer59_min        =   1.0007416017019E-11
(PID.TID 0000.0001) %MON trcstat_ptracer59_mean       =   5.5607928338744E-06
(PID.TID 0000.0001) %MON trcstat_ptracer59_sd         =   5.6672091178697E-05
(PID.TID 0000.0001) %MON trcstat_ptracer59_del2       =   5.2372025235127E-07
(PID.TID 0000.0001) %MON trcstat_ptracer60_max        =   4.2506363079551E-03
(PID.TID 0000.0001) %MON trcstat_ptracer60_min        =   1.0007416017019E-11
(PID.TID 0000.0001) %MON trcstat_ptracer60_mean       =   4.6120104751359E-06
(PID.TID 0000.0001) %MON trcstat_ptracer60_sd         =   4.7012782205067E-05
(PID.TID 0000.0001) %MON trcstat_ptracer60_del2       =   5.2798590476138E-07
(PID.TID 0000.0001) %MON trcstat_ptracer61_max        =   4.0150053270509E-03
(PID.TID 0000.0001) %MON trcstat_ptracer61_min        =   1.0007416014670E-11
(PID.TID 0000.0001) %MON trcstat_ptracer61_mean       =   4.1969717393488E-06
(PID.TID 0000.0001) %MON trcstat_ptracer61_sd         =   4.0259487920852E-05
(PID.TID 0000.0001) %MON trcstat_ptracer61_del2       =   4.7369650503549E-07
(PID.TID 0000.0001) %MON trcstat_ptracer62_max        =   4.0161513080418E-03
(PID.TID 0000.0001) %MON trcstat_ptracer62_min        =   1.0007416014670E-11
(PID.TID 0000.0001) %MON trcstat_ptracer62_mean       =   4.0206044583629E-06
(PID.TID 0000.0001) %MON trcstat_ptracer62_sd         =   3.9197713297325E-05
(PID.TID 0000.0001) %MON trcstat_ptracer62_del2       =   4.9509792971856E-07
(PID.TID 0000.0001) %MON trcstat_ptracer63_max        =   4.0150053270510E-03
(PID.TID 0000.0001) %MON trcstat_ptracer63_min        =   1.0007416014670E-11
(PID.TID 0000.0001) %MON trcstat_ptracer63_mean       =   5.7296005648101E-06
(PID.TID 0000.0001) %MON trcstat_ptracer63_sd         =   5.8311856873467E-05
(PID.TID 0000.0001) %MON trcstat_ptracer63_del2       =   5.1214977948278E-07
(PID.TID 0000.0001) %MON trcstat_ptracer64_max        =   4.2506363079551E-03
(PID.TID 0000.0001) %MON trcstat_ptracer64_min        =   1.0007416017019E-11
(PID.TID 0000.0001) %MON trcstat_ptracer64_mean       =   5.5793837603390E-06
(PID.TID 0000.0001) %MON trcstat_ptracer64_sd         =   5.8312311641340E-05
(PID.TID 0000.0001) %MON trcstat_ptracer64_del2       =   5.3738291115837E-07
(PID.TID 0000.0001) %MON trcstat_ptracer65_max        =   4.2506363079551E-03
(PID.TID 0000.0001) %MON trcstat_ptracer65_min        =   1.0007416017019E-11
(PID.TID 0000.0001) %MON trcstat_ptracer65_mean       =   4.3262923722150E-06
(PID.TID 0000.0001) %MON trcstat_ptracer65_sd         =   4.3297193497088E-05
(PID.TID 0000.0001) %MON trcstat_ptracer65_del2       =   5.0844874705007E-07
(PID.TID 0000.0001) %MON trcstat_ptracer66_max        =   4.2506363079551E-03
(PID.TID 0000.0001) %MON trcstat_ptracer66_min        =   1.0007416017019E-11
(PID.TID 0000.0001) %MON trcstat_ptracer66_mean       =   4.2050624123708E-06
(PID.TID 0000.0001) %MON trcstat_ptracer66_sd         =   4.1815482290185E-05
(PID.TID 0000.0001) %MON trcstat_ptracer66_del2       =   5.0540023781463E-07
(PID.TID 0000.0001) %MON trcstat_ptracer67_max        =   4.0150285698620E-03
(PID.TID 0000.0001) %MON trcstat_ptracer67_min        =   1.0007416014670E-11
(PID.TID 0000.0001) %MON trcstat_ptracer67_mean       =   3.6042654011835E-06
(PID.TID 0000.0001) %MON trcstat_ptracer67_sd         =   3.4017707292676E-05
(PID.TID 0000.0001) %MON trcstat_ptracer67_del2       =   4.6041449510991E-07
(PID.TID 0000.0001) %MON trcstat_ptracer68_max        =   4.1439578326390E-03
(PID.TID 0000.0001) %MON trcstat_ptracer68_min        =   9.9775214768661E-12
(PID.TID 0000.0001) %MON trcstat_ptracer68_mean       =   3.9412010453747E-06
(PID.TID 0000.0001) %MON trcstat_ptracer68_sd         =   3.8061302995155E-05
(PID.TID 0000.0001) %MON trcstat_ptracer68_del2       =   4.8588610902932E-07
(PID.TID 0000.0001) %MON trcstat_ptracer69_max        =   4.2506363079551E-03
(PID.TID 0000.0001) %MON trcstat_ptracer69_min        =   1.0007416017019E-11
(PID.TID 0000.0001) %MON trcstat_ptracer69_mean       =   4.6618172140818E-06
(PID.TID 0000.0001) %MON trcstat_ptracer69_sd         =   4.6625885402247E-05
(PID.TID 0000.0001) %MON trcstat_ptracer69_del2       =   5.2207347400810E-07
(PID.TID 0000.0001) %MON trcstat_ptracer70_max        =   4.2506363079550E-03
(PID.TID 0000.0001) %MON trcstat_ptracer70_min        =   1.0007416017019E-11
(PID.TID 0000.0001) %MON trcstat_ptracer70_mean       =   3.7836272283704E-06
(PID.TID 0000.0001) %MON trcstat_ptracer70_sd         =   3.6194693384291E-05
(PID.TID 0000.0001) %MON trcstat_ptracer70_del2       =   4.8332941746025E-07
(PID.TID 0000.0001) %MON trcstat_ptracer71_max        =   4.2506363079550E-03
(PID.TID 0000.0001) %MON trcstat_ptracer71_min        =   1.0007416017019E-11
(PID.TID 0000.0001) %MON trcstat_ptracer71_mean       =   4.1963747280022E-06
(PID.TID 0000.0001) %MON trcstat_ptracer71_sd         =   4.1361353082584E-05
(PID.TID 0000.0001) %MON trcstat_ptracer71_del2       =   4.9964498281809E-07
(PID.TID 0000.0001) %MON trcstat_ptracer72_max        =   4.1439578326389E-03
(PID.TID 0000.0001) %MON trcstat_ptracer72_min        =   9.9775214768661E-12
(PID.TID 0000.0001) %MON trcstat_ptracer72_mean       =   3.5586789957231E-06
(PID.TID 0000.0001) %MON trcstat_ptracer72_sd         =   3.4496009023052E-05
(PID.TID 0000.0001) %MON trcstat_ptracer72_del2       =   4.7374012118953E-07
(PID.TID 0000.0001) %MON trcstat_ptracer73_max        =   4.2506363079551E-03
(PID.TID 0000.0001) %MON trcstat_ptracer73_min        =   1.0007416017019E-11
(PID.TID 0000.0001) %MON trcstat_ptracer73_mean       =   4.6004007132212E-06
(PID.TID 0000.0001) %MON trcstat_ptracer73_sd         =   4.6642742606710E-05
(PID.TID 0000.0001) %MON trcstat_ptracer73_del2       =   5.2436144004217E-07
(PID.TID 0000.0001) %MON trcstat_ptracer74_max        =   4.0157982900144E-03
(PID.TID 0000.0001) %MON trcstat_ptracer74_min        =   1.0007416014670E-11
(PID.TID 0000.0001) %MON trcstat_ptracer74_mean       =   3.8498928217293E-06
(PID.TID 0000.0001) %MON trcstat_ptracer74_sd         =   3.6808202599519E-05
(PID.TID 0000.0001) %MON trcstat_ptracer74_del2       =   4.7631212245718E-07
(PID.TID 0000.0001) %MON trcstat_ptracer75_max        =   4.1439578326392E-03
(PID.TID 0000.0001) %MON trcstat_ptracer75_min        =   9.9775214768661E-12
(PID.TID 0000.0001) %MON trcstat_ptracer75_mean       =   4.4520678848117E-06
(PID.TID 0000.0001) %MON trcstat_ptracer75_sd         =   4.6370495038035E-05
(PID.TID 0000.0001) %MON trcstat_ptracer75_del2       =   5.2968680440735E-07
(PID.TID 0000.0001) %MON trcstat_ptracer76_max        =   4.1439578326390E-03
(PID.TID 0000.0001) %MON trcstat_ptracer76_min        =   9.9775214768661E-12
(PID.TID 0000.0001) %MON trcstat_ptracer76_mean       =   4.2811293868418E-06
(PID.TID 0000.0001) %MON trcstat_ptracer76_sd         =   4.2267139538834E-05
(PID.TID 0000.0001) %MON trcstat_ptracer76_del2       =   5.0658787463788E-07
(PID.TID 0000.0001) %MON trcstat_ptracer77_max        =   4.1439578326390E-03
(PID.TID 0000.0001) %MON trcstat_ptracer77_min        =   9.9775214768661E-12
(PID.TID 0000.0001) %MON trcstat_ptracer77_mean       =   4.7936286537350E-06
(PID.TID 0000.0001) %MON trcstat_ptracer77_sd         =   4.7806956158201E-05
(PID.TID 0000.0001) %MON trcstat_ptracer77_del2       =   5.0481331291519E-07
(PID.TID 0000.0001) %MON trcstat_ptracer78_max        =   4.1439578326390E-03
(PID.TID 0000.0001) %MON trcstat_ptracer78_min        =   9.9775214768661E-12
(PID.TID 0000.0001) %MON trcstat_ptracer78_mean       =   3.8504829629026E-06
(PID.TID 0000.0001) %MON trcstat_ptracer78_sd         =   3.6789376750343E-05
(PID.TID 0000.0001) %MON trcstat_ptracer78_del2       =   4.7945002094469E-07
(PID.TID 0000.0001) %MON trcstat_ptracer79_max        =   4.0150053270509E-03
(PID.TID 0000.0001) %MON trcstat_ptracer79_min        =   1.0007416014670E-11
(PID.TID 0000.0001) %MON trcstat_ptracer79_mean       =   4.5069047790969E-06
(PID.TID 0000.0001) %MON trcstat_ptracer79_sd         =   4.1407870578962E-05
(PID.TID 0000.0001) %MON trcstat_ptracer79_del2       =   4.7058721452176E-07
(PID.TID 0000.0001) %MON trcstat_ptracer80_max        =   4.2518297394495E-03
(PID.TID 0000.0001) %MON trcstat_ptracer80_min        =   1.0007416017019E-11
(PID.TID 0000.0001) %MON trcstat_ptracer80_mean       =   4.0345862400416E-06
(PID.TID 0000.0001) %MON trcstat_ptracer80_sd         =   3.9557568473836E-05
(PID.TID 0000.0001) %MON trcstat_ptracer80_del2       =   5.1222093086811E-07
(PID.TID 0000.0001) %MON trcstat_ptracer81_max        =   4.1439578326390E-03
(PID.TID 0000.0001) %MON trcstat_ptracer81_min        =   9.9775214768661E-12
(PID.TID 0000.0001) %MON trcstat_ptracer81_mean       =   3.7691783482481E-06
(PID.TID 0000.0001) %MON trcstat_ptracer81_sd         =   3.6647945487248E-05
(PID.TID 0000.0001) %MON trcstat_ptracer81_del2       =   4.8544693108349E-07
(PID.TID 0000.0001) %MON trcstat_ptracer82_max        =   4.0150053270510E-03
(PID.TID 0000.0001) %MON trcstat_ptracer82_min        =   1.0007416014670E-11
(PID.TID 0000.0001) %MON trcstat_ptracer82_mean       =   4.4211522687213E-06
(PID.TID 0000.0001) %MON trcstat_ptracer82_sd         =   4.4097990810901E-05
(PID.TID 0000.0001) %MON trcstat_ptracer82_del2       =   4.9469885135590E-07
(PID.TID 0000.0001) %MON trcstat_ptracer83_max        =   4.2506363079551E-03
(PID.TID 0000.0001) %MON trcstat_ptracer83_min        =   1.0007416017019E-11
(PID.TID 0000.0001) %MON trcstat_ptracer83_mean       =   5.6341460820146E-06
(PID.TID 0000.0001) %MON trcstat_ptracer83_sd         =   5.8671148615397E-05
(PID.TID 0000.0001) %MON trcstat_ptracer83_del2       =   5.3463366818837E-07
(PID.TID 0000.0001) %MON trcstat_ptracer84_max        =   4.2506363079550E-03
(PID.TID 0000.0001) %MON trcstat_ptracer84_min        =   1.0007416017019E-11
(PID.TID 0000.0001) %MON trcstat_ptracer84_mean       =   5.0064228767749E-06
(PID.TID 0000.0001) %MON trcstat_ptracer84_sd         =   4.9825390688848E-05
(PID.TID 0000.0001) %MON trcstat_ptracer84_del2       =   5.2592703450746E-07
(PID.TID 0000.0001) %MON trcstat_ptracer85_max        =   4.1442809542365E-03
(PID.TID 0000.0001) %MON trcstat_ptracer85_min        =   9.9775214768661E-12
(PID.TID 0000.0001) %MON trcstat_ptracer85_mean       =   3.6551774137595E-06
(PID.TID 0000.0001) %MON trcstat_ptracer85_sd         =   3.5071146489250E-05
(PID.TID 0000.0001) %MON trcstat_ptracer85_del2       =   4.7818403380685E-07
(PID.TID 0000.0001) %MON trcstat_ptracer86_max        =   4.1439578326390E-03
(PID.TID 0000.0001) %MON trcstat_ptracer86_min        =   9.9775214768661E-12
(PID.TID 0000.0001) %MON trcstat_ptracer86_mean       =   4.1948115468825E-06
(PID.TID 0000.0001) %MON trcstat_ptracer86_sd         =   4.1637764408912E-05
(PID.TID 0000.0001) %MON trcstat_ptracer86_del2       =   5.0965032319760E-07
(PID.TID 0000.0001) %MON trcstat_ptracer87_max        =   4.1439578326390E-03
(PID.TID 0000.0001) %MON trcstat_ptracer87_min        =   9.9775214768661E-12
(PID.TID 0000.0001) %MON trcstat_ptracer87_mean       =   3.5053958247365E-06
(PID.TID 0000.0001) %MON trcstat_ptracer87_sd         =   3.3787504622955E-05
(PID.TID 0000.0001) %MON trcstat_ptracer87_del2       =   4.7050024953579E-07
(PID.TID 0000.0001) %MON trcstat_ptracer88_max        =   4.2506363079550E-03
(PID.TID 0000.0001) %MON trcstat_ptracer88_min        =   1.0007416017019E-11
(PID.TID 0000.0001) %MON trcstat_ptracer88_mean       =   4.3357690118899E-06
(PID.TID 0000.0001) %MON trcstat_ptracer88_sd         =   4.2739517841336E-05
(PID.TID 0000.0001) %MON trcstat_ptracer88_del2       =   5.0202382016574E-07
(PID.TID 0000.0001) %MON trcstat_ptracer89_max        =   4.1439578326390E-03
(PID.TID 0000.0001) %MON trcstat_ptracer89_min        =   9.9775214768661E-12
(PID.TID 0000.0001) %MON trcstat_ptracer89_mean       =   3.6004906831780E-06
(PID.TID 0000.0001) %MON trcstat_ptracer89_sd         =   3.4663129890113E-05
(PID.TID 0000.0001) %MON trcstat_ptracer89_del2       =   4.7448038802048E-07
(PID.TID 0000.0001) %MON trcstat_ptracer90_max        =   4.1441272885913E-03
(PID.TID 0000.0001) %MON trcstat_ptracer90_min        =   9.9775214768661E-12
(PID.TID 0000.0001) %MON trcstat_ptracer90_mean       =   3.4779732971400E-06
(PID.TID 0000.0001) %MON trcstat_ptracer90_sd         =   3.3827160249919E-05
(PID.TID 0000.0001) %MON trcstat_ptracer90_del2       =   4.7045491440582E-07
(PID.TID 0000.0001) %MON trcstat_ptracer91_max        =   4.1439578326390E-03
(PID.TID 0000.0001) %MON trcstat_ptracer91_min        =   9.9775214768661E-12
(PID.TID 0000.0001) %MON trcstat_ptracer91_mean       =   3.7199297549591E-06
(PID.TID 0000.0001) %MON trcstat_ptracer91_sd         =   3.5482847168294E-05
(PID.TID 0000.0001) %MON trcstat_ptracer91_del2       =   4.7514681568696E-07
(PID.TID 0000.0001) %MON trcstat_ptracer92_max        =   4.1439578326390E-03
(PID.TID 0000.0001) %MON trcstat_ptracer92_min        =   9.9775214768661E-12
(PID.TID 0000.0001) %MON trcstat_ptracer92_mean       =   5.2250449085463E-06
(PID.TID 0000.0001) %MON trcstat_ptracer92_sd         =   5.2161075208444E-05
(PID.TID 0000.0001) %MON trcstat_ptracer92_del2       =   5.1296111189168E-07
(PID.TID 0000.0001) %MON trcstat_ptracer93_max        =   4.0150053270511E-03
(PID.TID 0000.0001) %MON trcstat_ptracer93_min        =   1.0007416014670E-11
(PID.TID 0000.0001) %MON trcstat_ptracer93_mean       =   4.9122364803140E-06
(PID.TID 0000.0001) %MON trcstat_ptracer93_sd         =   5.0091549223531E-05
(PID.TID 0000.0001) %MON trcstat_ptracer93_del2       =   5.2939742202359E-07
(PID.TID 0000.0001) %MON trcstat_ptracer94_max        =   4.0150053270510E-03
(PID.TID 0000.0001) %MON trcstat_ptracer94_min        =   1.0007416014670E-11
(PID.TID 0000.0001) %MON trcstat_ptracer94_mean       =   4.2698632334966E-06
(PID.TID 0000.0001) %MON trcstat_ptracer94_sd         =   4.1312232983513E-05
(PID.TID 0000.0001) %MON trcstat_ptracer94_del2       =   4.7999491683997E-07
(PID.TID 0000.0001) %MON trcstat_ptracer95_max        =   4.2514549179693E-03
(PID.TID 0000.0001) %MON trcstat_ptracer95_min        =   1.0007416017019E-11
(PID.TID 0000.0001) %MON trcstat_ptracer95_mean       =   3.6332151866136E-06
(PID.TID 0000.0001) %MON trcstat_ptracer95_sd         =   3.5118034540255E-05
(PID.TID 0000.0001) %MON trcstat_ptracer95_del2       =   4.8709236330293E-07
(PID.TID 0000.0001) %MON trcstat_ptracer96_max        =   4.1439578326390E-03
(PID.TID 0000.0001) %MON trcstat_ptracer96_min        =   9.9775214768661E-12
(PID.TID 0000.0001) %MON trcstat_ptracer96_mean       =   4.2051285294781E-06
(PID.TID 0000.0001) %MON trcstat_ptracer96_sd         =   3.9086198787255E-05
(PID.TID 0000.0001) %MON trcstat_ptracer96_del2       =   4.7647785090631E-07
(PID.TID 0000.0001) %MON trcstat_ptracer97_max        =   4.1439578326391E-03
(PID.TID 0000.0001) %MON trcstat_ptracer97_min        =   9.9775214768661E-12
(PID.TID 0000.0001) %MON trcstat_ptracer97_mean       =   4.0477733881508E-06
(PID.TID 0000.0001) %MON trcstat_ptracer97_sd         =   4.0587889416055E-05
(PID.TID 0000.0001) %MON trcstat_ptracer97_del2       =   5.1816179163121E-07
(PID.TID 0000.0001) %MON trcstat_ptracer98_max        =   4.1439578326390E-03
(PID.TID 0000.0001) %MON trcstat_ptracer98_min        =   9.9775214768661E-12
(PID.TID 0000.0001) %MON trcstat_ptracer98_mean       =   4.0410876177563E-06
(PID.TID 0000.0001) %MON trcstat_ptracer98_sd         =   3.9088045374576E-05
(PID.TID 0000.0001) %MON trcstat_ptracer98_del2       =   4.8921589962762E-07
(PID.TID 0000.0001) %MON trcstat_ptracer99_max        =   4.1439578326390E-03
(PID.TID 0000.0001) %MON trcstat_ptracer99_min        =   9.9775214768661E-12
(PID.TID 0000.0001) %MON trcstat_ptracer99_mean       =   4.3970441125800E-06
(PID.TID 0000.0001) %MON trcstat_ptracer99_sd         =   4.5584426505556E-05
(PID.TID 0000.0001) %MON trcstat_ptracer99_del2       =   5.3453354279778E-07
(PID.TID 0000.0001) // =======================================================
(PID.TID 0000.0001) // End MONITOR ptracers field statistics
(PID.TID 0000.0001) // =======================================================
 cg2d: Sum(rhs),rhsMax =  -6.04419639671505E-07  7.55583078239745E+00
(PID.TID 0000.0001)                    cg2d_init_res =    1.60004607235695E-02
(PID.TID 0000.0001)                       cg2d_iters =    22
(PID.TID 0000.0001)                         cg2d_res =    6.78144857410664E-14
(PID.TID 0000.0001) // =======================================================
(PID.TID 0000.0001) // Begin MONITOR dynamic field statistics
(PID.TID 0000.0001) // =======================================================
(PID.TID 0000.0001) %MON time_tsnumber                =               5644804
(PID.TID 0000.0001) %MON time_secondsf                =   2.4385553280000E+11
(PID.TID 0000.0001) %MON dynstat_eta_max              =   9.3585263292549E-01
(PID.TID 0000.0001) %MON dynstat_eta_min              =  -1.7302094835294E+00
(PID.TID 0000.0001) %MON dynstat_eta_mean             =   1.6246259379005E-10
(PID.TID 0000.0001) %MON dynstat_eta_sd               =   6.5162851373783E-01
(PID.TID 0000.0001) %MON dynstat_eta_del2             =   9.3001978035930E-04
(PID.TID 0000.0001) %MON dynstat_uvel_max             =   1.5534274763424E-01
(PID.TID 0000.0001) %MON dynstat_uvel_min             =  -1.8460367246561E-01
(PID.TID 0000.0001) %MON dynstat_uvel_mean            =   2.9493672516859E-03
(PID.TID 0000.0001) %MON dynstat_uvel_sd              =   1.3884672928701E-02
(PID.TID 0000.0001) %MON dynstat_uvel_del2            =   3.8124002408757E-05
(PID.TID 0000.0001) %MON dynstat_vvel_max             =   1.1189876385678E-01
(PID.TID 0000.0001) %MON dynstat_vvel_min             =  -1.4991981851827E-01
(PID.TID 0000.0001) %MON dynstat_vvel_mean            =  -1.8982861497682E-04
(PID.TID 0000.0001) %MON dynstat_vvel_sd              =   6.3516506005173E-03
(PID.TID 0000.0001) %MON dynstat_vvel_del2            =   2.6600398503878E-05
(PID.TID 0000.0001) %MON dynstat_wvel_max             =   4.3113686245977E-05
(PID.TID 0000.0001) %MON dynstat_wvel_min             =  -6.4911685270326E-05
(PID.TID 0000.0001) %MON dynstat_wvel_mean            =  -1.4077316511381E-23
(PID.TID 0000.0001) %MON dynstat_wvel_sd              =   1.9024434600930E-06
(PID.TID 0000.0001) %MON dynstat_wvel_del2            =   1.3090149634292E-08
(PID.TID 0000.0001) %MON dynstat_theta_max            =   2.9961112712153E+01
(PID.TID 0000.0001) %MON dynstat_theta_min            =  -2.1381750508833E+00
(PID.TID 0000.0001) %MON dynstat_theta_mean           =   3.7553069297012E+00
(PID.TID 0000.0001) %MON dynstat_theta_sd             =   5.1499484716061E+00
(PID.TID 0000.0001) %MON dynstat_theta_del2           =   2.2536084225591E-03
(PID.TID 0000.0001) %MON dynstat_salt_max             =   3.7553013323862E+01
(PID.TID 0000.0001) %MON dynstat_salt_min             =   3.1354782975882E+01
(PID.TID 0000.0001) %MON dynstat_salt_mean            =   3.4543283907150E+01
(PID.TID 0000.0001) %MON dynstat_salt_sd              =   3.5867989948536E-01
(PID.TID 0000.0001) %MON dynstat_salt_del2            =   3.8283032590018E-04
(PID.TID 0000.0001) %MON forcing_qnet_max             =   4.5149834136963E+02
(PID.TID 0000.0001) %MON forcing_qnet_min             =  -2.1192386779785E+02
(PID.TID 0000.0001) %MON forcing_qnet_mean            =  -1.7618810898482E+01
(PID.TID 0000.0001) %MON forcing_qnet_sd              =   1.1569810928118E+02
(PID.TID 0000.0001) %MON forcing_qnet_del2            =   2.7337286084428E-01
(PID.TID 0000.0001) %MON forcing_qsw_max              =   0.0000000000000E+00
(PID.TID 0000.0001) %MON forcing_qsw_min              =   0.0000000000000E+00
(PID.TID 0000.0001) %MON forcing_qsw_mean             =   0.0000000000000E+00
(PID.TID 0000.0001) %MON forcing_qsw_sd               =   0.0000000000000E+00
(PID.TID 0000.0001) %MON forcing_qsw_del2             =   0.0000000000000E+00
(PID.TID 0000.0001) %MON forcing_empmr_max            =   6.9206222512719E-05
(PID.TID 0000.0001) %MON forcing_empmr_min            =  -1.5544422772962E-04
(PID.TID 0000.0001) %MON forcing_empmr_mean           =   1.2460352661810E-14
(PID.TID 0000.0001) %MON forcing_empmr_sd             =   2.4700019777611E-05
(PID.TID 0000.0001) %MON forcing_empmr_del2           =   1.1591736879229E-07
(PID.TID 0000.0001) %MON forcing_fu_max               =   2.6902737915516E-01
(PID.TID 0000.0001) %MON forcing_fu_min               =  -1.5706808120012E-01
(PID.TID 0000.0001) %MON forcing_fu_mean              =   1.7804393042848E-02
(PID.TID 0000.0001) %MON forcing_fu_sd                =   8.9598809050515E-02
(PID.TID 0000.0001) %MON forcing_fu_del2              =   2.4870321403548E-04
(PID.TID 0000.0001) %MON forcing_fv_max               =   1.9845492169261E-01
(PID.TID 0000.0001) %MON forcing_fv_min               =  -1.5973595827818E-01
(PID.TID 0000.0001) %MON forcing_fv_mean              =  -6.3949581310796E-03
(PID.TID 0000.0001) %MON forcing_fv_sd                =   4.4425766452552E-02
(PID.TID 0000.0001) %MON forcing_fv_del2              =   1.7992767173481E-04
(PID.TID 0000.0001) %MON advcfl_uvel_max              =   4.0115623656791E-02
(PID.TID 0000.0001) %MON advcfl_vvel_max              =   2.0712544933892E-02
(PID.TID 0000.0001) %MON advcfl_wvel_max              =   1.3112695160108E-02
(PID.TID 0000.0001) %MON advcfl_W_hf_max              =   1.5454247867270E-02
(PID.TID 0000.0001) %MON pe_b_mean                    =   5.8613298605401E-04
(PID.TID 0000.0001) %MON ke_max                       =   1.7857030349380E-02
(PID.TID 0000.0001) %MON ke_mean                      =   1.1142718814214E-04
(PID.TID 0000.0001) %MON ke_vol                       =   1.1739855207380E+18
(PID.TID 0000.0001) %MON vort_r_min                   =  -5.5752273455805E-07
(PID.TID 0000.0001) %MON vort_r_max                   =   6.2161971888046E-07
(PID.TID 0000.0001) %MON vort_a_mean                  =  -2.5798915502265E-05
(PID.TID 0000.0001) %MON vort_a_sd                    =   7.3558773001403E-05
(PID.TID 0000.0001) %MON vort_p_mean                  =  -3.0020960747216E-05
(PID.TID 0000.0001) %MON vort_p_sd                    =   9.8090576393667E-05
(PID.TID 0000.0001) %MON surfExpan_theta_mean         =  -2.2993220092721E-07
(PID.TID 0000.0001) %MON surfExpan_salt_mean          =   2.7845094135406E-08
(PID.TID 0000.0001) // =======================================================
(PID.TID 0000.0001) // End MONITOR dynamic field statistics
(PID.TID 0000.0001) // =======================================================
(PID.TID 0000.0001) // =======================================================
(PID.TID 0000.0001) // Begin MONITOR ptracer field statistics
(PID.TID 0000.0001) // =======================================================
(PID.TID 0000.0001) %MON trcstat_ptracer01_max        =   3.4905935699571E+00
(PID.TID 0000.0001) %MON trcstat_ptracer01_min        =   4.5906283693276E-02
(PID.TID 0000.0001) %MON trcstat_ptracer01_mean       =   2.1105987286703E+00
(PID.TID 0000.0001) %MON trcstat_ptracer01_sd         =   6.4925014491371E-01
(PID.TID 0000.0001) %MON trcstat_ptracer01_del2       =   3.7196879237385E-04
(PID.TID 0000.0001) %MON trcstat_ptracer02_max        =   5.5522012136066E+01
(PID.TID 0000.0001) %MON trcstat_ptracer02_min        =   1.5685073271055E-04
(PID.TID 0000.0001) %MON trcstat_ptracer02_mean       =   3.0322923562293E+01
(PID.TID 0000.0001) %MON trcstat_ptracer02_sd         =   9.3025386873594E+00
(PID.TID 0000.0001) %MON trcstat_ptracer02_del2       =   7.1555194222741E-03
(PID.TID 0000.0001) %MON trcstat_ptracer03_max        =   1.3877502972776E-03
(PID.TID 0000.0001) %MON trcstat_ptracer03_min        =   2.5606018926455E-06
(PID.TID 0000.0001) %MON trcstat_ptracer03_mean       =   3.2960747725215E-04
(PID.TID 0000.0001) %MON trcstat_ptracer03_sd         =   2.1697305252331E-04
(PID.TID 0000.0001) %MON trcstat_ptracer03_del2       =   2.1162988165086E-07
(PID.TID 0000.0001) %MON trcstat_ptracer04_max        =   1.8837816515017E+02
(PID.TID 0000.0001) %MON trcstat_ptracer04_min        =   4.1805502376567E-01
(PID.TID 0000.0001) %MON trcstat_ptracer04_mean       =   8.3739890375555E+01
(PID.TID 0000.0001) %MON trcstat_ptracer04_sd         =   4.9672274553475E+01
(PID.TID 0000.0001) %MON trcstat_ptracer04_del2       =   1.6724117545376E-02
(PID.TID 0000.0001) %MON trcstat_ptracer05_max        =   1.2764998852735E-01
(PID.TID 0000.0001) %MON trcstat_ptracer05_min        =  -1.4824129886446E-04
(PID.TID 0000.0001) %MON trcstat_ptracer05_mean       =   1.0946926303818E-03
(PID.TID 0000.0001) %MON trcstat_ptracer05_sd         =   6.9190788120678E-03
(PID.TID 0000.0001) %MON trcstat_ptracer05_del2       =   2.0395379571949E-05
(PID.TID 0000.0001) %MON trcstat_ptracer06_max        =   2.0423998164375E+00
(PID.TID 0000.0001) %MON trcstat_ptracer06_min        =  -2.3718607818314E-03
(PID.TID 0000.0001) %MON trcstat_ptracer06_mean       =   1.7515082086109E-02
(PID.TID 0000.0001) %MON trcstat_ptracer06_sd         =   1.1070526099309E-01
(PID.TID 0000.0001) %MON trcstat_ptracer06_del2       =   3.2632607315118E-04
(PID.TID 0000.0001) %MON trcstat_ptracer07_max        =   8.6472870041069E-05
(PID.TID 0000.0001) %MON trcstat_ptracer07_min        =  -1.2300353486050E-07
(PID.TID 0000.0001) %MON trcstat_ptracer07_mean       =   3.3002387291246E-07
(PID.TID 0000.0001) %MON trcstat_ptracer07_sd         =   2.2741293011455E-06
(PID.TID 0000.0001) %MON trcstat_ptracer07_del2       =   1.0168941615970E-08
(PID.TID 0000.0001) %MON trcstat_ptracer08_max        =   7.0792050781415E-02
(PID.TID 0000.0001) %MON trcstat_ptracer08_min        =   1.0583718396271E-10
(PID.TID 0000.0001) %MON trcstat_ptracer08_mean       =   3.9716262549392E-05
(PID.TID 0000.0001) %MON trcstat_ptracer08_sd         =   4.4213903657729E-04
(PID.TID 0000.0001) %MON trcstat_ptracer08_del2       =   7.3574957350515E-06
(PID.TID 0000.0001) %MON trcstat_ptracer09_max        =   1.1326728125026E+00
(PID.TID 0000.0001) %MON trcstat_ptracer09_min        =   1.6933949434033E-09
(PID.TID 0000.0001) %MON trcstat_ptracer09_mean       =   6.3546020079028E-04
(PID.TID 0000.0001) %MON trcstat_ptracer09_sd         =   7.0742245852367E-03
(PID.TID 0000.0001) %MON trcstat_ptracer09_del2       =   1.1771993176082E-04
(PID.TID 0000.0001) %MON trcstat_ptracer10_max        =   1.4831420398556E-04
(PID.TID 0000.0001) %MON trcstat_ptracer10_min        =   2.6459296360727E-13
(PID.TID 0000.0001) %MON trcstat_ptracer10_mean       =   9.5795844143427E-08
(PID.TID 0000.0001) %MON trcstat_ptracer10_sd         =   1.0050591037458E-06
(PID.TID 0000.0001) %MON trcstat_ptracer10_del2       =   1.5771971630740E-08
(PID.TID 0000.0001) %MON trcstat_ptracer11_max        =   4.2064760654000E-01
(PID.TID 0000.0001) %MON trcstat_ptracer11_min        =   8.4669747020832E-10
(PID.TID 0000.0001) %MON trcstat_ptracer11_mean       =   3.0000839014576E-04
(PID.TID 0000.0001) %MON trcstat_ptracer11_sd         =   3.0319728385755E-03
(PID.TID 0000.0001) %MON trcstat_ptracer11_del2       =   4.5591895531180E-05
(PID.TID 0000.0001) %MON trcstat_ptracer12_max        =   7.3258815296231E-02
(PID.TID 0000.0001) %MON trcstat_ptracer12_min        =   1.0583718395185E-10
(PID.TID 0000.0001) %MON trcstat_ptracer12_mean       =   3.9896492966175E-05
(PID.TID 0000.0001) %MON trcstat_ptracer12_sd         =   4.4814221912517E-04
(PID.TID 0000.0001) %MON trcstat_ptracer12_del2       =   7.5484112455592E-06
(PID.TID 0000.0001) %MON trcstat_ptracer13_max        =   1.1721410447397E+00
(PID.TID 0000.0001) %MON trcstat_ptracer13_min        =   1.6933949432295E-09
(PID.TID 0000.0001) %MON trcstat_ptracer13_mean       =   6.3834388745880E-04
(PID.TID 0000.0001) %MON trcstat_ptracer13_sd         =   7.1702755060027E-03
(PID.TID 0000.0001) %MON trcstat_ptracer13_del2       =   1.2077457992895E-04
(PID.TID 0000.0001) %MON trcstat_ptracer14_max        =   1.5078096850038E-04
(PID.TID 0000.0001) %MON trcstat_ptracer14_min        =   2.6459296359641E-13
(PID.TID 0000.0001) %MON trcstat_ptracer14_mean       =   9.5976074560437E-08
(PID.TID 0000.0001) %MON trcstat_ptracer14_sd         =   1.0108420897768E-06
(PID.TID 0000.0001) %MON trcstat_ptracer14_del2       =   1.5958534975659E-08
(PID.TID 0000.0001) %MON trcstat_ptracer15_max        =   5.1645638834933E-01
(PID.TID 0000.0001) %MON trcstat_ptracer15_min        =   8.4669747100129E-10
(PID.TID 0000.0001) %MON trcstat_ptracer15_mean       =   3.1105857348992E-04
(PID.TID 0000.0001) %MON trcstat_ptracer15_sd         =   3.3460618478510E-03
(PID.TID 0000.0001) %MON trcstat_ptracer15_del2       =   5.4073603210171E-05
(PID.TID 0000.0001) %MON trcstat_ptracer16_max        =   1.8661772942598E-01
(PID.TID 0000.0001) %MON trcstat_ptracer16_min        =   8.4265196978246E-08
(PID.TID 0000.0001) %MON trcstat_ptracer16_mean       =   1.6560976323440E-03
(PID.TID 0000.0001) %MON trcstat_ptracer16_sd         =   3.5533806160036E-03
(PID.TID 0000.0001) %MON trcstat_ptracer16_del2       =   1.7200596886713E-05
(PID.TID 0000.0001) %MON trcstat_ptracer17_max        =   2.9858836708157E+00
(PID.TID 0000.0001) %MON trcstat_ptracer17_min        =   1.3482431516519E-06
(PID.TID 0000.0001) %MON trcstat_ptracer17_mean       =   2.6497562117505E-02
(PID.TID 0000.0001) %MON trcstat_ptracer17_sd         =   5.6854089856057E-02
(PID.TID 0000.0001) %MON trcstat_ptracer17_del2       =   2.7520955018741E-04
(PID.TID 0000.0001) %MON trcstat_ptracer18_max        =   1.9378346255520E-04
(PID.TID 0000.0001) %MON trcstat_ptracer18_min        =   1.3617506515475E-11
(PID.TID 0000.0001) %MON trcstat_ptracer18_mean       =   7.4900865426482E-07
(PID.TID 0000.0001) %MON trcstat_ptracer18_sd         =   2.3511826778577E-06
(PID.TID 0000.0001) %MON trcstat_ptracer18_del2       =   1.3173746509375E-08
(PID.TID 0000.0001) %MON trcstat_ptracer19_max        =   4.0470466757658E+01
(PID.TID 0000.0001) %MON trcstat_ptracer19_min        =  -1.0142231722397E-01
(PID.TID 0000.0001) %MON trcstat_ptracer19_mean       =   1.5089542859984E-01
(PID.TID 0000.0001) %MON trcstat_ptracer19_sd         =   4.0936974784113E-01
(PID.TID 0000.0001) %MON trcstat_ptracer19_del2       =   2.1496278763548E-03
(PID.TID 0000.0001) %MON trcstat_ptracer20_max        =   2.9516308446667E-01
(PID.TID 0000.0001) %MON trcstat_ptracer20_min        =   2.3111984428726E-08
(PID.TID 0000.0001) %MON trcstat_ptracer20_mean       =   2.7422758943385E-03
(PID.TID 0000.0001) %MON trcstat_ptracer20_sd         =   1.7319124638036E-02
(PID.TID 0000.0001) %MON trcstat_ptracer20_del2       =   6.3855063528609E-05
(PID.TID 0000.0001) %MON trcstat_ptracer21_max        =   2.5545583673449E+00
(PID.TID 0000.0001) %MON trcstat_ptracer21_min        =   2.6777496878477E-06
(PID.TID 0000.0001) %MON trcstat_ptracer21_mean       =   2.9696778254137E-02
(PID.TID 0000.0001) %MON trcstat_ptracer21_sd         =   8.7375241409524E-02
(PID.TID 0000.0001) %MON trcstat_ptracer21_del2       =   1.2624506265199E-04
(PID.TID 0000.0001) %MON trcstat_ptracer22_max        =   3.4636686990725E-03
(PID.TID 0000.0001) %MON trcstat_ptracer22_min        =   9.5273705933926E-12
(PID.TID 0000.0001) %MON trcstat_ptracer22_mean       =   3.6573779078220E-06
(PID.TID 0000.0001) %MON trcstat_ptracer22_sd         =   3.4953444723974E-05
(PID.TID 0000.0001) %MON trcstat_ptracer22_del2       =   4.4210773760626E-07
(PID.TID 0000.0001) %MON trcstat_ptracer23_max        =   3.6174720482476E-03
(PID.TID 0000.0001) %MON trcstat_ptracer23_min        =   9.4894443703670E-12
(PID.TID 0000.0001) %MON trcstat_ptracer23_mean       =   3.7815137897792E-06
(PID.TID 0000.0001) %MON trcstat_ptracer23_sd         =   3.6628515143812E-05
(PID.TID 0000.0001) %MON trcstat_ptracer23_del2       =   4.3746731609102E-07
(PID.TID 0000.0001) %MON trcstat_ptracer24_max        =   3.7588564944359E-03
(PID.TID 0000.0001) %MON trcstat_ptracer24_min        =   9.5273705963309E-12
(PID.TID 0000.0001) %MON trcstat_ptracer24_mean       =   3.6752882587531E-06
(PID.TID 0000.0001) %MON trcstat_ptracer24_sd         =   3.5325282672392E-05
(PID.TID 0000.0001) %MON trcstat_ptracer24_del2       =   4.5732774612120E-07
(PID.TID 0000.0001) %MON trcstat_ptracer25_max        =   3.6174720482476E-03
(PID.TID 0000.0001) %MON trcstat_ptracer25_min        =   9.4894443703670E-12
(PID.TID 0000.0001) %MON trcstat_ptracer25_mean       =   3.4374801962759E-06
(PID.TID 0000.0001) %MON trcstat_ptracer25_sd         =   3.2358348114058E-05
(PID.TID 0000.0001) %MON trcstat_ptracer25_del2       =   4.2242389962035E-07
(PID.TID 0000.0001) %MON trcstat_ptracer26_max        =   3.7294307503667E-03
(PID.TID 0000.0001) %MON trcstat_ptracer26_min        =   9.4894443703670E-12
(PID.TID 0000.0001) %MON trcstat_ptracer26_mean       =   5.0279923635486E-06
(PID.TID 0000.0001) %MON trcstat_ptracer26_sd         =   5.7001644445637E-05
(PID.TID 0000.0001) %MON trcstat_ptracer26_del2       =   5.2875308165464E-07
(PID.TID 0000.0001) %MON trcstat_ptracer27_max        =   3.6174720482476E-03
(PID.TID 0000.0001) %MON trcstat_ptracer27_min        =   9.4894443703670E-12
(PID.TID 0000.0001) %MON trcstat_ptracer27_mean       =   3.9125351905304E-06
(PID.TID 0000.0001) %MON trcstat_ptracer27_sd         =   3.7247326323135E-05
(PID.TID 0000.0001) %MON trcstat_ptracer27_del2       =   4.3515809495637E-07
(PID.TID 0000.0001) %MON trcstat_ptracer28_max        =   3.7565183652140E-03
(PID.TID 0000.0001) %MON trcstat_ptracer28_min        =   9.5273705963309E-12
(PID.TID 0000.0001) %MON trcstat_ptracer28_mean       =   4.8150558704558E-06
(PID.TID 0000.0001) %MON trcstat_ptracer28_sd         =   5.1652515449102E-05
(PID.TID 0000.0001) %MON trcstat_ptracer28_del2       =   5.0427006708594E-07
(PID.TID 0000.0001) %MON trcstat_ptracer29_max        =   3.6174720482476E-03
(PID.TID 0000.0001) %MON trcstat_ptracer29_min        =   9.4894443703670E-12
(PID.TID 0000.0001) %MON trcstat_ptracer29_mean       =   3.6096107516087E-06
(PID.TID 0000.0001) %MON trcstat_ptracer29_sd         =   3.4735777277765E-05
(PID.TID 0000.0001) %MON trcstat_ptracer29_del2       =   4.3725595412190E-07
(PID.TID 0000.0001) %MON trcstat_ptracer30_max        =   3.6174720482476E-03
(PID.TID 0000.0001) %MON trcstat_ptracer30_min        =   9.4894443703670E-12
(PID.TID 0000.0001) %MON trcstat_ptracer30_mean       =   3.7336892502879E-06
(PID.TID 0000.0001) %MON trcstat_ptracer30_sd         =   3.6019898389636E-05
(PID.TID 0000.0001) %MON trcstat_ptracer30_del2       =   4.3682935066258E-07
(PID.TID 0000.0001) %MON trcstat_ptracer31_max        =   3.4609099562946E-03
(PID.TID 0000.0001) %MON trcstat_ptracer31_min        =   9.5273705933926E-12
(PID.TID 0000.0001) %MON trcstat_ptracer31_mean       =   3.9712177170074E-06
(PID.TID 0000.0001) %MON trcstat_ptracer31_sd         =   3.8658201905174E-05
(PID.TID 0000.0001) %MON trcstat_ptracer31_del2       =   4.3439452207830E-07
(PID.TID 0000.0001) %MON trcstat_ptracer32_max        =   3.8571868407542E-03
(PID.TID 0000.0001) %MON trcstat_ptracer32_min        =   9.4894443703670E-12
(PID.TID 0000.0001) %MON trcstat_ptracer32_mean       =   4.6455896809817E-06
(PID.TID 0000.0001) %MON trcstat_ptracer32_sd         =   5.1121922381141E-05
(PID.TID 0000.0001) %MON trcstat_ptracer32_del2       =   5.3182772922783E-07
(PID.TID 0000.0001) %MON trcstat_ptracer33_max        =   3.6174720482476E-03
(PID.TID 0000.0001) %MON trcstat_ptracer33_min        =   9.4894443703670E-12
(PID.TID 0000.0001) %MON trcstat_ptracer33_mean       =   3.6190821051141E-06
(PID.TID 0000.0001) %MON trcstat_ptracer33_sd         =   3.3802786137923E-05
(PID.TID 0000.0001) %MON trcstat_ptracer33_del2       =   4.2775070647416E-07
(PID.TID 0000.0001) %MON trcstat_ptracer34_max        =   3.6174720482476E-03
(PID.TID 0000.0001) %MON trcstat_ptracer34_min        =   9.4894443703670E-12
(PID.TID 0000.0001) %MON trcstat_ptracer34_mean       =   3.3731879703940E-06
(PID.TID 0000.0001) %MON trcstat_ptracer34_sd         =   3.1828661261229E-05
(PID.TID 0000.0001) %MON trcstat_ptracer34_del2       =   4.2010712137947E-07
(PID.TID 0000.0001) %MON trcstat_ptracer35_max        =   3.7565183652139E-03
(PID.TID 0000.0001) %MON trcstat_ptracer35_min        =   9.5273705963309E-12
(PID.TID 0000.0001) %MON trcstat_ptracer35_mean       =   7.1502035368575E-06
(PID.TID 0000.0001) %MON trcstat_ptracer35_sd         =   7.6495565561060E-05
(PID.TID 0000.0001) %MON trcstat_ptracer35_del2       =   4.9891626912911E-07
(PID.TID 0000.0001) %MON trcstat_ptracer36_max        =   4.0170352909910E-03
(PID.TID 0000.0001) %MON trcstat_ptracer36_min        =   9.5273705933926E-12
(PID.TID 0000.0001) %MON trcstat_ptracer36_mean       =   6.1506005061784E-06
(PID.TID 0000.0001) %MON trcstat_ptracer36_sd         =   7.0549488014440E-05
(PID.TID 0000.0001) %MON trcstat_ptracer36_del2       =   5.1571472596842E-07
(PID.TID 0000.0001) %MON trcstat_ptracer37_max        =   3.6176034132212E-03
(PID.TID 0000.0001) %MON trcstat_ptracer37_min        =   9.4894443703670E-12
(PID.TID 0000.0001) %MON trcstat_ptracer37_mean       =   3.3000958142651E-06
(PID.TID 0000.0001) %MON trcstat_ptracer37_sd         =   3.1180670432262E-05
(PID.TID 0000.0001) %MON trcstat_ptracer37_del2       =   4.1829210064490E-07
(PID.TID 0000.0001) %MON trcstat_ptracer38_max        =   5.1392786801727E-03
(PID.TID 0000.0001) %MON trcstat_ptracer38_min        =   9.5273705933926E-12
(PID.TID 0000.0001) %MON trcstat_ptracer38_mean       =   8.5746384431952E-06
(PID.TID 0000.0001) %MON trcstat_ptracer38_sd         =   1.0651478021884E-04
(PID.TID 0000.0001) %MON trcstat_ptracer38_del2       =   6.1514079479442E-07
(PID.TID 0000.0001) %MON trcstat_ptracer39_max        =   4.5631369376129E-03
(PID.TID 0000.0001) %MON trcstat_ptracer39_min        =   9.5273705933926E-12
(PID.TID 0000.0001) %MON trcstat_ptracer39_mean       =   6.4635079838479E-06
(PID.TID 0000.0001) %MON trcstat_ptracer39_sd         =   7.4675761856025E-05
(PID.TID 0000.0001) %MON trcstat_ptracer39_del2       =   5.6396911517573E-07
(PID.TID 0000.0001) %MON trcstat_ptracer40_max        =   3.6174720482476E-03
(PID.TID 0000.0001) %MON trcstat_ptracer40_min        =   9.4894443703670E-12
(PID.TID 0000.0001) %MON trcstat_ptracer40_mean       =   4.6340583765848E-06
(PID.TID 0000.0001) %MON trcstat_ptracer40_sd         =   4.8881414617717E-05
(PID.TID 0000.0001) %MON trcstat_ptracer40_del2       =   5.0345934990505E-07
(PID.TID 0000.0001) %MON trcstat_ptracer41_max        =   3.6175389714465E-03
(PID.TID 0000.0001) %MON trcstat_ptracer41_min        =   9.4894443703670E-12
(PID.TID 0000.0001) %MON trcstat_ptracer41_mean       =   3.5309757759587E-06
(PID.TID 0000.0001) %MON trcstat_ptracer41_sd         =   3.3660443693494E-05
(PID.TID 0000.0001) %MON trcstat_ptracer41_del2       =   4.3607854471180E-07
(PID.TID 0000.0001) %MON trcstat_ptracer42_max        =   3.6174720482476E-03
(PID.TID 0000.0001) %MON trcstat_ptracer42_min        =   9.4894443703670E-12
(PID.TID 0000.0001) %MON trcstat_ptracer42_mean       =   3.3324383319592E-06
(PID.TID 0000.0001) %MON trcstat_ptracer42_sd         =   3.1465320924190E-05
(PID.TID 0000.0001) %MON trcstat_ptracer42_del2       =   4.1875561088469E-07
(PID.TID 0000.0001) %MON trcstat_ptracer43_max        =   5.4144731176304E-03
(PID.TID 0000.0001) %MON trcstat_ptracer43_min        =   9.5273705933926E-12
(PID.TID 0000.0001) %MON trcstat_ptracer43_mean       =   8.2382550219186E-06
(PID.TID 0000.0001) %MON trcstat_ptracer43_sd         =   1.0484643078012E-04
(PID.TID 0000.0001) %MON trcstat_ptracer43_del2       =   6.3312857871412E-07
(PID.TID 0000.0001) %MON trcstat_ptracer44_max        =   3.6174720482476E-03
(PID.TID 0000.0001) %MON trcstat_ptracer44_min        =   9.4894443703670E-12
(PID.TID 0000.0001) %MON trcstat_ptracer44_mean       =   3.6883240687972E-06
(PID.TID 0000.0001) %MON trcstat_ptracer44_sd         =   3.5447892425598E-05
(PID.TID 0000.0001) %MON trcstat_ptracer44_del2       =   4.3457051601870E-07
(PID.TID 0000.0001) %MON trcstat_ptracer45_max        =   3.6174720482476E-03
(PID.TID 0000.0001) %MON trcstat_ptracer45_min        =   9.4894443703670E-12
(PID.TID 0000.0001) %MON trcstat_ptracer45_mean       =   3.5987369040705E-06
(PID.TID 0000.0001) %MON trcstat_ptracer45_sd         =   3.3568868605386E-05
(PID.TID 0000.0001) %MON trcstat_ptracer45_del2       =   4.2678651359790E-07
(PID.TID 0000.0001) %MON trcstat_ptracer46_max        =   3.6174720482476E-03
(PID.TID 0000.0001) %MON trcstat_ptracer46_min        =   9.4894443703670E-12
(PID.TID 0000.0001) %MON trcstat_ptracer46_mean       =   3.6252908714238E-06
(PID.TID 0000.0001) %MON trcstat_ptracer46_sd         =   3.4958466976186E-05
(PID.TID 0000.0001) %MON trcstat_ptracer46_del2       =   4.3857781318937E-07
(PID.TID 0000.0001) %MON trcstat_ptracer47_max        =   3.6174720482476E-03
(PID.TID 0000.0001) %MON trcstat_ptracer47_min        =   9.4894443703670E-12
(PID.TID 0000.0001) %MON trcstat_ptracer47_mean       =   5.9452718051881E-06
(PID.TID 0000.0001) %MON trcstat_ptracer47_sd         =   6.4205593188582E-05
(PID.TID 0000.0001) %MON trcstat_ptracer47_del2       =   5.0411757179618E-07
(PID.TID 0000.0001) %MON trcstat_ptracer48_max        =   3.4626048368362E-03
(PID.TID 0000.0001) %MON trcstat_ptracer48_min        =   9.5273705933926E-12
(PID.TID 0000.0001) %MON trcstat_ptracer48_mean       =   3.4823358631556E-06
(PID.TID 0000.0001) %MON trcstat_ptracer48_sd         =   3.2719896760699E-05
(PID.TID 0000.0001) %MON trcstat_ptracer48_del2       =   4.2074160729507E-07
(PID.TID 0000.0001) %MON trcstat_ptracer49_max        =   3.4608144215857E-03
(PID.TID 0000.0001) %MON trcstat_ptracer49_min        =   9.5273705933926E-12
(PID.TID 0000.0001) %MON trcstat_ptracer49_mean       =   4.3960858470713E-06
(PID.TID 0000.0001) %MON trcstat_ptracer49_sd         =   4.0867308823410E-05
(PID.TID 0000.0001) %MON trcstat_ptracer49_del2       =   4.2577817224717E-07
(PID.TID 0000.0001) %MON trcstat_ptracer50_max        =   3.6190687665647E-03
(PID.TID 0000.0001) %MON trcstat_ptracer50_min        =   9.4894443703670E-12
(PID.TID 0000.0001) %MON trcstat_ptracer50_mean       =   3.4392874153955E-06
(PID.TID 0000.0001) %MON trcstat_ptracer50_sd         =   3.2761145992203E-05
(PID.TID 0000.0001) %MON trcstat_ptracer50_del2       =   4.3197389892669E-07
(PID.TID 0000.0001) %MON trcstat_ptracer51_max        =   3.6174720482476E-03
(PID.TID 0000.0001) %MON trcstat_ptracer51_min        =   9.4894443703670E-12
(PID.TID 0000.0001) %MON trcstat_ptracer51_mean       =   3.5027197742876E-06
(PID.TID 0000.0001) %MON trcstat_ptracer51_sd         =   3.2872652828055E-05
(PID.TID 0000.0001) %MON trcstat_ptracer51_del2       =   4.2594375801361E-07
(PID.TID 0000.0001) %MON trcstat_ptracer52_max        =   3.7565183652139E-03
(PID.TID 0000.0001) %MON trcstat_ptracer52_min        =   9.5273705963309E-12
(PID.TID 0000.0001) %MON trcstat_ptracer52_mean       =   4.2840054190934E-06
(PID.TID 0000.0001) %MON trcstat_ptracer52_sd         =   4.2696506576519E-05
(PID.TID 0000.0001) %MON trcstat_ptracer52_del2       =   4.5900657091814E-07
(PID.TID 0000.0001) %MON trcstat_ptracer53_max        =   4.1588347448435E-03
(PID.TID 0000.0001) %MON trcstat_ptracer53_min        =   9.4894443703670E-12
(PID.TID 0000.0001) %MON trcstat_ptracer53_mean       =   4.1066872050805E-06
(PID.TID 0000.0001) %MON trcstat_ptracer53_sd         =   4.0314029382118E-05
(PID.TID 0000.0001) %MON trcstat_ptracer53_del2       =   4.6043446425967E-07
(PID.TID 0000.0001) %MON trcstat_ptracer54_max        =   3.6174720482476E-03
(PID.TID 0000.0001) %MON trcstat_ptracer54_min        =   9.4894443703670E-12
(PID.TID 0000.0001) %MON trcstat_ptracer54_mean       =   3.6398553290580E-06
(PID.TID 0000.0001) %MON trcstat_ptracer54_sd         =   3.5227780418270E-05
(PID.TID 0000.0001) %MON trcstat_ptracer54_del2       =   4.3934803826523E-07
(PID.TID 0000.0001) %MON trcstat_ptracer55_max        =   3.4608144215857E-03
(PID.TID 0000.0001) %MON trcstat_ptracer55_min        =   9.5273705933926E-12
(PID.TID 0000.0001) %MON trcstat_ptracer55_mean       =   4.1762780397819E-06
(PID.TID 0000.0001) %MON trcstat_ptracer55_sd         =   3.7007156935374E-05
(PID.TID 0000.0001) %MON trcstat_ptracer55_del2       =   4.0984971664472E-07
(PID.TID 0000.0001) %MON trcstat_ptracer56_max        =   3.5873148122569E-03
(PID.TID 0000.0001) %MON trcstat_ptracer56_min        =   9.5273705933926E-12
(PID.TID 0000.0001) %MON trcstat_ptracer56_mean       =   5.7421382174995E-06
(PID.TID 0000.0001) %MON trcstat_ptracer56_sd         =   6.2398039555849E-05
(PID.TID 0000.0001) %MON trcstat_ptracer56_del2       =   5.4463562762929E-07
(PID.TID 0000.0001) %MON trcstat_ptracer57_max        =   3.6174720482479E-03
(PID.TID 0000.0001) %MON trcstat_ptracer57_min        =   9.4894443703670E-12
(PID.TID 0000.0001) %MON trcstat_ptracer57_mean       =   5.2346420284533E-06
(PID.TID 0000.0001) %MON trcstat_ptracer57_sd         =   5.6600482483576E-05
(PID.TID 0000.0001) %MON trcstat_ptracer57_del2       =   4.9706894342605E-07
(PID.TID 0000.0001) %MON trcstat_ptracer58_max        =   3.6174720482477E-03
(PID.TID 0000.0001) %MON trcstat_ptracer58_min        =   9.4894443703670E-12
(PID.TID 0000.0001) %MON trcstat_ptracer58_mean       =   3.5726660347508E-06
(PID.TID 0000.0001) %MON trcstat_ptracer58_sd         =   3.4369820209324E-05
(PID.TID 0000.0001) %MON trcstat_ptracer58_del2       =   4.3739314976961E-07
(PID.TID 0000.0001) %MON trcstat_ptracer59_max        =   3.7565183652139E-03
(PID.TID 0000.0001) %MON trcstat_ptracer59_min        =   9.5273705963309E-12
(PID.TID 0000.0001) %MON trcstat_ptracer59_mean       =   6.7537324449302E-06
(PID.TID 0000.0001) %MON trcstat_ptracer59_sd         =   7.6140224258308E-05
(PID.TID 0000.0001) %MON trcstat_ptracer59_del2       =   5.2119674708448E-07
(PID.TID 0000.0001) %MON trcstat_ptracer60_max        =   3.7565183652141E-03
(PID.TID 0000.0001) %MON trcstat_ptracer60_min        =   9.5273705963309E-12
(PID.TID 0000.0001) %MON trcstat_ptracer60_mean       =   5.0157805766041E-06
(PID.TID 0000.0001) %MON trcstat_ptracer60_sd         =   5.5063157650310E-05
(PID.TID 0000.0001) %MON trcstat_ptracer60_del2       =   5.2882384099594E-07
(PID.TID 0000.0001) %MON trcstat_ptracer61_max        =   3.4608144215858E-03
(PID.TID 0000.0001) %MON trcstat_ptracer61_min        =   9.5273705933926E-12
(PID.TID 0000.0001) %MON trcstat_ptracer61_mean       =   4.3450830009408E-06
(PID.TID 0000.0001) %MON trcstat_ptracer61_sd         =   4.2633750366201E-05
(PID.TID 0000.0001) %MON trcstat_ptracer61_del2       =   4.3200950599867E-07
(PID.TID 0000.0001) %MON trcstat_ptracer62_max        =   3.4630948995522E-03
(PID.TID 0000.0001) %MON trcstat_ptracer62_min        =   9.5273705933926E-12
(PID.TID 0000.0001) %MON trcstat_ptracer62_mean       =   4.0736132951534E-06
(PID.TID 0000.0001) %MON trcstat_ptracer62_sd         =   4.0449823626983E-05
(PID.TID 0000.0001) %MON trcstat_ptracer62_del2       =   4.6895320018758E-07
(PID.TID 0000.0001) %MON trcstat_ptracer63_max        =   3.8638902105236E-03
(PID.TID 0000.0001) %MON trcstat_ptracer63_min        =   9.5273705933926E-12
(PID.TID 0000.0001) %MON trcstat_ptracer63_mean       =   6.9960895667805E-06
(PID.TID 0000.0001) %MON trcstat_ptracer63_sd         =   7.8700847737597E-05
(PID.TID 0000.0001) %MON trcstat_ptracer63_del2       =   5.1485304569928E-07
(PID.TID 0000.0001) %MON trcstat_ptracer64_max        =   4.4092324703666E-03
(PID.TID 0000.0001) %MON trcstat_ptracer64_min        =   9.5273705963309E-12
(PID.TID 0000.0001) %MON trcstat_ptracer64_mean       =   6.8715545546779E-06
(PID.TID 0000.0001) %MON trcstat_ptracer64_sd         =   8.1265895585974E-05
(PID.TID 0000.0001) %MON trcstat_ptracer64_del2       =   5.5601199239951E-07
(PID.TID 0000.0001) %MON trcstat_ptracer65_max        =   3.7565183652140E-03
(PID.TID 0000.0001) %MON trcstat_ptracer65_min        =   9.5273705963309E-12
(PID.TID 0000.0001) %MON trcstat_ptracer65_mean       =   4.5526272032472E-06
(PID.TID 0000.0001) %MON trcstat_ptracer65_sd         =   4.7922581442132E-05
(PID.TID 0000.0001) %MON trcstat_ptracer65_del2       =   4.8650196733737E-07
(PID.TID 0000.0001) %MON trcstat_ptracer66_max        =   3.7565183652139E-03
(PID.TID 0000.0001) %MON trcstat_ptracer66_min        =   9.5273705963309E-12
(PID.TID 0000.0001) %MON trcstat_ptracer66_mean       =   4.3629934846952E-06
(PID.TID 0000.0001) %MON trcstat_ptracer66_sd         =   4.5179743188733E-05
(PID.TID 0000.0001) %MON trcstat_ptracer66_del2       =   4.7994722758100E-07
(PID.TID 0000.0001) %MON trcstat_ptracer67_max        =   3.4608595372827E-03
(PID.TID 0000.0001) %MON trcstat_ptracer67_min        =   9.5273705933926E-12
(PID.TID 0000.0001) %MON trcstat_ptracer67_mean       =   3.4608009300794E-06
(PID.TID 0000.0001) %MON trcstat_ptracer67_sd         =   3.1890470677224E-05
(PID.TID 0000.0001) %MON trcstat_ptracer67_del2       =   4.0699737952073E-07
(PID.TID 0000.0001) %MON trcstat_ptracer68_max        =   3.6174720482476E-03
(PID.TID 0000.0001) %MON trcstat_ptracer68_min        =   9.4894443703670E-12
(PID.TID 0000.0001) %MON trcstat_ptracer68_mean       =   3.9387443075889E-06
(PID.TID 0000.0001) %MON trcstat_ptracer68_sd         =   3.8244838873506E-05
(PID.TID 0000.0001) %MON trcstat_ptracer68_del2       =   4.4516732517034E-07
(PID.TID 0000.0001) %MON trcstat_ptracer69_max        =   3.7565183652140E-03
(PID.TID 0000.0001) %MON trcstat_ptracer69_min        =   9.5273705963309E-12
(PID.TID 0000.0001) %MON trcstat_ptracer69_mean       =   5.0637156700843E-06
(PID.TID 0000.0001) %MON trcstat_ptracer69_sd         =   5.3582996790741E-05
(PID.TID 0000.0001) %MON trcstat_ptracer69_del2       =   5.1658190476995E-07
(PID.TID 0000.0001) %MON trcstat_ptracer70_max        =   3.7565183652138E-03
(PID.TID 0000.0001) %MON trcstat_ptracer70_min        =   9.5273705963309E-12
(PID.TID 0000.0001) %MON trcstat_ptracer70_mean       =   3.7060449675575E-06
(PID.TID 0000.0001) %MON trcstat_ptracer70_sd         =   3.4992340353945E-05
(PID.TID 0000.0001) %MON trcstat_ptracer70_del2       =   4.3571919325198E-07
(PID.TID 0000.0001) %MON trcstat_ptracer71_max        =   3.7565183652139E-03
(PID.TID 0000.0001) %MON trcstat_ptracer71_min        =   9.5273705963309E-12
(PID.TID 0000.0001) %MON trcstat_ptracer71_mean       =   4.3426311929269E-06
(PID.TID 0000.0001) %MON trcstat_ptracer71_sd         =   4.4270920556338E-05
(PID.TID 0000.0001) %MON trcstat_ptracer71_del2       =   4.6766688544805E-07
(PID.TID 0000.0001) %MON trcstat_ptracer72_max        =   3.6174720482471E-03
(PID.TID 0000.0001) %MON trcstat_ptracer72_min        =   9.4894443703670E-12
(PID.TID 0000.0001) %MON trcstat_ptracer72_mean       =   3.3997521356413E-06
(PID.TID 0000.0001) %MON trcstat_ptracer72_sd         =   3.2408331238679E-05
(PID.TID 0000.0001) %MON trcstat_ptracer72_del2       =   4.2366128858951E-07
(PID.TID 0000.0001) %MON trcstat_ptracer73_max        =   3.7565183652140E-03
(PID.TID 0000.0001) %MON trcstat_ptracer73_min        =   9.5273705963309E-12
(PID.TID 0000.0001) %MON trcstat_ptracer73_mean       =   4.9946270373377E-06
(PID.TID 0000.0001) %MON trcstat_ptracer73_sd         =   5.4324004614503E-05
(PID.TID 0000.0001) %MON trcstat_ptracer73_del2       =   5.2145611385822E-07
(PID.TID 0000.0001) %MON trcstat_ptracer74_max        =   3.4624021150130E-03
(PID.TID 0000.0001) %MON trcstat_ptracer74_min        =   9.5273705933926E-12
(PID.TID 0000.0001) %MON trcstat_ptracer74_mean       =   3.8187171243877E-06
(PID.TID 0000.0001) %MON trcstat_ptracer74_sd         =   3.6395931466528E-05
(PID.TID 0000.0001) %MON trcstat_ptracer74_del2       =   4.3508067780988E-07
(PID.TID 0000.0001) %MON trcstat_ptracer75_max        =   3.8452455202544E-03
(PID.TID 0000.0001) %MON trcstat_ptracer75_min        =   9.4894443703670E-12
(PID.TID 0000.0001) %MON trcstat_ptracer75_mean       =   4.7358501307554E-06
(PID.TID 0000.0001) %MON trcstat_ptracer75_sd         =   5.3229579193135E-05
(PID.TID 0000.0001) %MON trcstat_ptracer75_del2       =   5.2915368012100E-07
(PID.TID 0000.0001) %MON trcstat_ptracer76_max        =   3.6174720482476E-03
(PID.TID 0000.0001) %MON trcstat_ptracer76_min        =   9.4894443703670E-12
(PID.TID 0000.0001) %MON trcstat_ptracer76_mean       =   4.3604977431382E-06
(PID.TID 0000.0001) %MON trcstat_ptracer76_sd         =   4.2748918406594E-05
(PID.TID 0000.0001) %MON trcstat_ptracer76_del2       =   4.5849859218004E-07
(PID.TID 0000.0001) %MON trcstat_ptracer77_max        =   3.6174720482476E-03
(PID.TID 0000.0001) %MON trcstat_ptracer77_min        =   9.4894443703670E-12
(PID.TID 0000.0001) %MON trcstat_ptracer77_mean       =   5.4405752448899E-06
(PID.TID 0000.0001) %MON trcstat_ptracer77_sd         =   5.9641193578009E-05
(PID.TID 0000.0001) %MON trcstat_ptracer77_del2       =   4.8629001293158E-07
(PID.TID 0000.0001) %MON trcstat_ptracer78_max        =   3.6174720482476E-03
(PID.TID 0000.0001) %MON trcstat_ptracer78_min        =   9.4894443703670E-12
(PID.TID 0000.0001) %MON trcstat_ptracer78_mean       =   3.7608763211804E-06
(PID.TID 0000.0001) %MON trcstat_ptracer78_sd         =   3.5070714473377E-05
(PID.TID 0000.0001) %MON trcstat_ptracer78_del2       =   4.2784693421856E-07
(PID.TID 0000.0001) %MON trcstat_ptracer79_max        =   3.4608144215857E-03
(PID.TID 0000.0001) %MON trcstat_ptracer79_min        =   9.5273705933926E-12
(PID.TID 0000.0001) %MON trcstat_ptracer79_mean       =   4.7659248234891E-06
(PID.TID 0000.0001) %MON trcstat_ptracer79_sd         =   4.3821089818780E-05
(PID.TID 0000.0001) %MON trcstat_ptracer79_del2       =   4.2401873713483E-07
(PID.TID 0000.0001) %MON trcstat_ptracer80_max        =   3.7589481233831E-03
(PID.TID 0000.0001) %MON trcstat_ptracer80_min        =   9.5273705963309E-12
(PID.TID 0000.0001) %MON trcstat_ptracer80_mean       =   4.0898386348245E-06
(PID.TID 0000.0001) %MON trcstat_ptracer80_sd         =   4.0693068922370E-05
(PID.TID 0000.0001) %MON trcstat_ptracer80_del2       =   4.8757485556017E-07
(PID.TID 0000.0001) %MON trcstat_ptracer81_max        =   3.6174720482476E-03
(PID.TID 0000.0001) %MON trcstat_ptracer81_min        =   9.4894443703670E-12
(PID.TID 0000.0001) %MON trcstat_ptracer81_mean       =   3.6817333331813E-06
(PID.TID 0000.0001) %MON trcstat_ptracer81_sd         =   3.5584721148949E-05
(PID.TID 0000.0001) %MON trcstat_ptracer81_del2       =   4.4116903925872E-07
(PID.TID 0000.0001) %MON trcstat_ptracer82_max        =   3.4608144215859E-03
(PID.TID 0000.0001) %MON trcstat_ptracer82_min        =   9.5273705933926E-12
(PID.TID 0000.0001) %MON trcstat_ptracer82_mean       =   4.7312888358588E-06
(PID.TID 0000.0001) %MON trcstat_ptracer82_sd         =   5.0383367368641E-05
(PID.TID 0000.0001) %MON trcstat_ptracer82_del2       =   4.7945540033159E-07
(PID.TID 0000.0001) %MON trcstat_ptracer83_max        =   4.2837047925236E-03
(PID.TID 0000.0001) %MON trcstat_ptracer83_min        =   9.5273705963309E-12
(PID.TID 0000.0001) %MON trcstat_ptracer83_mean       =   6.9817810335740E-06
(PID.TID 0000.0001) %MON trcstat_ptracer83_sd         =   8.2268975551052E-05
(PID.TID 0000.0001) %MON trcstat_ptracer83_del2       =   5.5076338910800E-07
(PID.TID 0000.0001) %MON trcstat_ptracer84_max        =   3.7565183652139E-03
(PID.TID 0000.0001) %MON trcstat_ptracer84_min        =   9.5273705963309E-12
(PID.TID 0000.0001) %MON trcstat_ptracer84_mean       =   5.6099391684880E-06
(PID.TID 0000.0001) %MON trcstat_ptracer84_sd         =   5.9327327629668E-05
(PID.TID 0000.0001) %MON trcstat_ptracer84_del2       =   5.2477709192612E-07
(PID.TID 0000.0001) %MON trcstat_ptracer85_max        =   3.6181033002779E-03
(PID.TID 0000.0001) %MON trcstat_ptracer85_min        =   9.4894443703670E-12
(PID.TID 0000.0001) %MON trcstat_ptracer85_mean       =   3.5363241060155E-06
(PID.TID 0000.0001) %MON trcstat_ptracer85_sd         =   3.3404452178343E-05
(PID.TID 0000.0001) %MON trcstat_ptracer85_del2       =   4.3105806044715E-07
(PID.TID 0000.0001) %MON trcstat_ptracer86_max        =   3.6174720482476E-03
(PID.TID 0000.0001) %MON trcstat_ptracer86_min        =   9.4894443703670E-12
(PID.TID 0000.0001) %MON trcstat_ptracer86_mean       =   4.2265134232853E-06
(PID.TID 0000.0001) %MON trcstat_ptracer86_sd         =   4.1480008732021E-05
(PID.TID 0000.0001) %MON trcstat_ptracer86_del2       =   4.6142197887518E-07
(PID.TID 0000.0001) %MON trcstat_ptracer87_max        =   3.6174720482476E-03
(PID.TID 0000.0001) %MON trcstat_ptracer87_min        =   9.4894443703670E-12
(PID.TID 0000.0001) %MON trcstat_ptracer87_mean       =   3.3292400326763E-06
(PID.TID 0000.0001) %MON trcstat_ptracer87_sd         =   3.1420119905197E-05
(PID.TID 0000.0001) %MON trcstat_ptracer87_del2       =   4.1850294388755E-07
(PID.TID 0000.0001) %MON trcstat_ptracer88_max        =   3.7565183652139E-03
(PID.TID 0000.0001) %MON trcstat_ptracer88_min        =   9.5273705963309E-12
(PID.TID 0000.0001) %MON trcstat_ptracer88_mean       =   4.5557117812563E-06
(PID.TID 0000.0001) %MON trcstat_ptracer88_sd         =   4.6714684450068E-05
(PID.TID 0000.0001) %MON trcstat_ptracer88_del2       =   4.7220988440887E-07
(PID.TID 0000.0001) %MON trcstat_ptracer89_max        =   3.6174720482476E-03
(PID.TID 0000.0001) %MON trcstat_ptracer89_min        =   9.4894443703670E-12
(PID.TID 0000.0001) %MON trcstat_ptracer89_mean       =   3.4436591913049E-06
(PID.TID 0000.0001) %MON trcstat_ptracer89_sd         =   3.2501371166662E-05
(PID.TID 0000.0001) %MON trcstat_ptracer89_del2       =   4.2307659544451E-07
(PID.TID 0000.0001) %MON trcstat_ptracer90_max        =   3.6178963296779E-03
(PID.TID 0000.0001) %MON trcstat_ptracer90_min        =   9.4894443703670E-12
(PID.TID 0000.0001) %MON trcstat_ptracer90_mean       =   3.2960301162974E-06
(PID.TID 0000.0001) %MON trcstat_ptracer90_sd         =   3.1533320826259E-05
(PID.TID 0000.0001) %MON trcstat_ptracer90_del2       =   4.1964354642766E-07
(PID.TID 0000.0001) %MON trcstat_ptracer91_max        =   3.6174720482476E-03
(PID.TID 0000.0001) %MON trcstat_ptracer91_min        =   9.4894443703670E-12
(PID.TID 0000.0001) %MON trcstat_ptracer91_mean       =   3.5910846495969E-06
(PID.TID 0000.0001) %MON trcstat_ptracer91_sd         =   3.3413536072897E-05
(PID.TID 0000.0001) %MON trcstat_ptracer91_del2       =   4.2322873131463E-07
(PID.TID 0000.0001) %MON trcstat_ptracer92_max        =   3.6174720482476E-03
(PID.TID 0000.0001) %MON trcstat_ptracer92_min        =   9.4894443703670E-12
(PID.TID 0000.0001) %MON trcstat_ptracer92_mean       =   6.1557453740022E-06
(PID.TID 0000.0001) %MON trcstat_ptracer92_sd         =   6.7127967569951E-05
(PID.TID 0000.0001) %MON trcstat_ptracer92_del2       =   4.9750015422251E-07
(PID.TID 0000.0001) %MON trcstat_ptracer93_max        =   4.2508092572332E-03
(PID.TID 0000.0001) %MON trcstat_ptracer93_min        =   9.5273705933926E-12
(PID.TID 0000.0001) %MON trcstat_ptracer93_mean       =   5.4850382804269E-06
(PID.TID 0000.0001) %MON trcstat_ptracer93_sd         =   6.0682978310100E-05
(PID.TID 0000.0001) %MON trcstat_ptracer93_del2       =   5.5826601775178E-07
(PID.TID 0000.0001) %MON trcstat_ptracer94_max        =   3.4608144215858E-03
(PID.TID 0000.0001) %MON trcstat_ptracer94_min        =   9.5273705933926E-12
(PID.TID 0000.0001) %MON trcstat_ptracer94_mean       =   4.4660373681213E-06
(PID.TID 0000.0001) %MON trcstat_ptracer94_sd         =   4.4682204158478E-05
(PID.TID 0000.0001) %MON trcstat_ptracer94_del2       =   4.4598826872801E-07
(PID.TID 0000.0001) %MON trcstat_ptracer95_max        =   3.7582064854639E-03
(PID.TID 0000.0001) %MON trcstat_ptracer95_min        =   9.5273705963309E-12
(PID.TID 0000.0001) %MON trcstat_ptracer95_mean       =   3.5055719175316E-06
(PID.TID 0000.0001) %MON trcstat_ptracer95_sd         =   3.3428811771119E-05
(PID.TID 0000.0001) %MON trcstat_ptracer95_del2       =   4.4303057773260E-07
(PID.TID 0000.0001) %MON trcstat_ptracer96_max        =   3.6174720482476E-03
(PID.TID 0000.0001) %MON trcstat_ptracer96_min        =   9.4894443703670E-12
(PID.TID 0000.0001) %MON trcstat_ptracer96_mean       =   4.2999416149142E-06
(PID.TID 0000.0001) %MON trcstat_ptracer96_sd         =   3.9541921214439E-05
(PID.TID 0000.0001) %MON trcstat_ptracer96_del2       =   4.2350447453986E-07
(PID.TID 0000.0001) %MON trcstat_ptracer97_max        =   3.8689760028296E-03
(PID.TID 0000.0001) %MON trcstat_ptracer97_min        =   9.4894443703670E-12
(PID.TID 0000.0001) %MON trcstat_ptracer97_mean       =   4.0779635336566E-06
(PID.TID 0000.0001) %MON trcstat_ptracer97_sd         =   4.1750864923187E-05
(PID.TID 0000.0001) %MON trcstat_ptracer97_del2       =   4.9521427465712E-07
(PID.TID 0000.0001) %MON trcstat_ptracer98_max        =   3.6174720482476E-03
(PID.TID 0000.0001) %MON trcstat_ptracer98_min        =   9.4894443703670E-12
(PID.TID 0000.0001) %MON trcstat_ptracer98_mean       =   4.0872984861081E-06
(PID.TID 0000.0001) %MON trcstat_ptracer98_sd         =   3.9926143540288E-05
(PID.TID 0000.0001) %MON trcstat_ptracer98_del2       =   4.5240465575232E-07
(PID.TID 0000.0001) %MON trcstat_ptracer99_max        =   3.7534197683563E-03
(PID.TID 0000.0001) %MON trcstat_ptracer99_min        =   9.4894443703670E-12
(PID.TID 0000.0001) %MON trcstat_ptracer99_mean       =   4.6075549383468E-06
(PID.TID 0000.0001) %MON trcstat_ptracer99_sd         =   5.0332681306465E-05
(PID.TID 0000.0001) %MON trcstat_ptracer99_del2       =   5.2403886927073E-07
(PID.TID 0000.0001) // =======================================================
(PID.TID 0000.0001) // End MONITOR ptracers field statistics
(PID.TID 0000.0001) // =======================================================
(PID.TID 0000.0001) %CHECKPOINT   5644804 ckptA
(PID.TID 0000.0001)   Seconds in section "ALL                    [THE_MODEL_MAIN]":
(PID.TID 0000.0001)           User time:   148.03999999999999
(PID.TID 0000.0001)         System time:   4.1799999999999997
(PID.TID 0000.0001)     Wall clock time:   204.05809402465820
(PID.TID 0000.0001)          No. starts:           1
(PID.TID 0000.0001)           No. stops:           1
(PID.TID 0000.0001)   Seconds in section "INITIALISE_FIXED       [THE_MODEL_MAIN]":
(PID.TID 0000.0001)           User time:  0.58999999999999997
(PID.TID 0000.0001)         System time:  0.14000000000000001
(PID.TID 0000.0001)     Wall clock time:   4.8008139133453369
(PID.TID 0000.0001)          No. starts:           1
(PID.TID 0000.0001)           No. stops:           1
(PID.TID 0000.0001)   Seconds in section "THE_MAIN_LOOP          [THE_MODEL_MAIN]":
(PID.TID 0000.0001)           User time:   147.44999999999999
(PID.TID 0000.0001)         System time:   4.0400000000000000
(PID.TID 0000.0001)     Wall clock time:   199.25639390945435
(PID.TID 0000.0001)          No. starts:           1
(PID.TID 0000.0001)           No. stops:           1
(PID.TID 0000.0001)   Seconds in section "INITIALISE_VARIA    [THE_MAIN_LOOP]":
(PID.TID 0000.0001)           User time:   4.1000000000000005
(PID.TID 0000.0001)         System time:   3.6600000000000001
(PID.TID 0000.0001)     Wall clock time:   41.154017210006714
(PID.TID 0000.0001)          No. starts:           1
(PID.TID 0000.0001)           No. stops:           1
(PID.TID 0000.0001)   Seconds in section "MAIN LOOP           [THE_MAIN_LOOP]":
(PID.TID 0000.0001)           User time:   143.34999999999999
(PID.TID 0000.0001)         System time:  0.37999999999999945
(PID.TID 0000.0001)     Wall clock time:   158.10233402252197
(PID.TID 0000.0001)          No. starts:           1
(PID.TID 0000.0001)           No. stops:           1
(PID.TID 0000.0001)   Seconds in section "FORWARD_STEP        [THE_MAIN_LOOP]":
(PID.TID 0000.0001)           User time:   143.34999999999999
(PID.TID 0000.0001)         System time:  0.37999999999999901
(PID.TID 0000.0001)     Wall clock time:   158.10227417945862
(PID.TID 0000.0001)          No. starts:           4
(PID.TID 0000.0001)           No. stops:           4
(PID.TID 0000.0001)   Seconds in section "LOAD_FIELDS_DRIVER  [FORWARD_STEP]":
(PID.TID 0000.0001)           User time:   9.9999999999909051E-003
(PID.TID 0000.0001)         System time:   0.0000000000000000
(PID.TID 0000.0001)     Wall clock time:   2.1487474441528320E-002
(PID.TID 0000.0001)          No. starts:           4
(PID.TID 0000.0001)           No. stops:           4
(PID.TID 0000.0001)   Seconds in section "EXTERNAL_FLDS_LOAD [LOAD_FLDS_DRIVER]":
(PID.TID 0000.0001)           User time:   9.9999999999909051E-003
(PID.TID 0000.0001)         System time:   0.0000000000000000
(PID.TID 0000.0001)     Wall clock time:   1.2526988983154297E-002
(PID.TID 0000.0001)          No. starts:           4
(PID.TID 0000.0001)           No. stops:           4
(PID.TID 0000.0001)   Seconds in section "DO_ATMOSPHERIC_PHYS [FORWARD_STEP]":
(PID.TID 0000.0001)           User time:   0.0000000000000000
(PID.TID 0000.0001)         System time:   0.0000000000000000
(PID.TID 0000.0001)     Wall clock time:   5.0783157348632812E-005
(PID.TID 0000.0001)          No. starts:           4
(PID.TID 0000.0001)           No. stops:           4
(PID.TID 0000.0001)   Seconds in section "DO_OCEANIC_PHYS     [FORWARD_STEP]":
(PID.TID 0000.0001)           User time:  0.33000000000001251
(PID.TID 0000.0001)         System time:   0.0000000000000000
(PID.TID 0000.0001)     Wall clock time:  0.32887530326843262
(PID.TID 0000.0001)          No. starts:           4
(PID.TID 0000.0001)           No. stops:           4
(PID.TID 0000.0001)   Seconds in section "GCHEM_CALC_TENDENCY [FORWARD_STEP]":
(PID.TID 0000.0001)           User time:   0.0000000000000000
(PID.TID 0000.0001)         System time:   0.0000000000000000
(PID.TID 0000.0001)     Wall clock time:   4.5776367187500000E-005
(PID.TID 0000.0001)          No. starts:           4
(PID.TID 0000.0001)           No. stops:           4
(PID.TID 0000.0001)   Seconds in section "THERMODYNAMICS      [FORWARD_STEP]":
(PID.TID 0000.0001)           User time:   59.889999999999986
(PID.TID 0000.0001)         System time:   2.9999999999999805E-002
(PID.TID 0000.0001)     Wall clock time:   60.147762060165405
(PID.TID 0000.0001)          No. starts:           4
(PID.TID 0000.0001)           No. stops:           4
(PID.TID 0000.0001)   Seconds in section "DYNAMICS            [FORWARD_STEP]":
(PID.TID 0000.0001)           User time:   1.6700000000000159
(PID.TID 0000.0001)         System time:   0.0000000000000000
(PID.TID 0000.0001)     Wall clock time:   1.6790611743927002
(PID.TID 0000.0001)          No. starts:           4
(PID.TID 0000.0001)           No. stops:           4
(PID.TID 0000.0001)   Seconds in section "SOLVE_FOR_PRESSURE  [FORWARD_STEP]":
(PID.TID 0000.0001)           User time:  0.17000000000000171
(PID.TID 0000.0001)         System time:   0.0000000000000000
(PID.TID 0000.0001)     Wall clock time:  0.17185997962951660
(PID.TID 0000.0001)          No. starts:           4
(PID.TID 0000.0001)           No. stops:           4
(PID.TID 0000.0001)   Seconds in section "MOM_CORRECTION_STEP [FORWARD_STEP]":
(PID.TID 0000.0001)           User time:   3.0000000000001137E-002
(PID.TID 0000.0001)         System time:   0.0000000000000000
(PID.TID 0000.0001)     Wall clock time:   2.8957843780517578E-002
(PID.TID 0000.0001)          No. starts:           4
(PID.TID 0000.0001)           No. stops:           4
(PID.TID 0000.0001)   Seconds in section "INTEGR_CONTINUITY   [FORWARD_STEP]":
(PID.TID 0000.0001)           User time:   4.0000000000006253E-002
(PID.TID 0000.0001)         System time:   0.0000000000000000
(PID.TID 0000.0001)     Wall clock time:   4.6419143676757812E-002
(PID.TID 0000.0001)          No. starts:           4
(PID.TID 0000.0001)           No. stops:           4
(PID.TID 0000.0001)   Seconds in section "TRC_CORRECTION_STEP [FORWARD_STEP]":
(PID.TID 0000.0001)           User time:  0.67999999999999261
(PID.TID 0000.0001)         System time:   0.0000000000000000
(PID.TID 0000.0001)     Wall clock time:  0.67355132102966309
(PID.TID 0000.0001)          No. starts:           4
(PID.TID 0000.0001)           No. stops:           4
(PID.TID 0000.0001)   Seconds in section "GCHEM_FORCING_SEP  [FORWARD_STEP]":
(PID.TID 0000.0001)           User time:   73.859999999999999
(PID.TID 0000.0001)         System time:   2.0000000000000018E-002
(PID.TID 0000.0001)     Wall clock time:   74.127156257629395
(PID.TID 0000.0001)          No. starts:           4
(PID.TID 0000.0001)           No. stops:           4
(PID.TID 0000.0001)   Seconds in section "BLOCKING_EXCHANGES  [FORWARD_STEP]":
(PID.TID 0000.0001)           User time:  0.35999999999998522
(PID.TID 0000.0001)         System time:   0.0000000000000000
(PID.TID 0000.0001)     Wall clock time:  0.35797810554504395
(PID.TID 0000.0001)          No. starts:           4
(PID.TID 0000.0001)           No. stops:           4
(PID.TID 0000.0001)   Seconds in section "DO_STATEVARS_TAVE   [FORWARD_STEP]":
(PID.TID 0000.0001)           User time:   1.0599999999999739
(PID.TID 0000.0001)         System time:   0.0000000000000000
(PID.TID 0000.0001)     Wall clock time:   1.0750589370727539
(PID.TID 0000.0001)          No. starts:           4
(PID.TID 0000.0001)           No. stops:           4
(PID.TID 0000.0001)   Seconds in section "MONITOR             [FORWARD_STEP]":
(PID.TID 0000.0001)           User time:  0.35999999999998522
(PID.TID 0000.0001)         System time:   0.0000000000000000
(PID.TID 0000.0001)     Wall clock time:  0.34988975524902344
(PID.TID 0000.0001)          No. starts:           4
(PID.TID 0000.0001)           No. stops:           4
(PID.TID 0000.0001)   Seconds in section "DO_THE_MODEL_IO     [FORWARD_STEP]":
(PID.TID 0000.0001)           User time:   4.1500000000000341
(PID.TID 0000.0001)         System time:  0.18000000000000016
(PID.TID 0000.0001)     Wall clock time:   18.197947978973389
(PID.TID 0000.0001)          No. starts:           4
(PID.TID 0000.0001)           No. stops:           4
(PID.TID 0000.0001)   Seconds in section "DO_WRITE_PICKUP     [FORWARD_STEP]":
(PID.TID 0000.0001)           User time:  0.73999999999998067
(PID.TID 0000.0001)         System time:  0.14999999999999947
(PID.TID 0000.0001)     Wall clock time:  0.89529991149902344
(PID.TID 0000.0001)          No. starts:           4
(PID.TID 0000.0001)           No. stops:           4
(PID.TID 0000.0001) // ======================================================
(PID.TID 0000.0001) // Tile <-> Tile communication statistics
(PID.TID 0000.0001) // ======================================================
(PID.TID 0000.0001) // o Tile number: 000001
(PID.TID 0000.0001) //         No. X exchanges =              0
(PID.TID 0000.0001) //            Max. X spins =              0
(PID.TID 0000.0001) //            Min. X spins =     1000000000
(PID.TID 0000.0001) //          Total. X spins =              0
(PID.TID 0000.0001) //            Avg. X spins =       0.00E+00
(PID.TID 0000.0001) //         No. Y exchanges =              0
(PID.TID 0000.0001) //            Max. Y spins =              0
(PID.TID 0000.0001) //            Min. Y spins =     1000000000
(PID.TID 0000.0001) //          Total. Y spins =              0
(PID.TID 0000.0001) //            Avg. Y spins =       0.00E+00
(PID.TID 0000.0001) // o Tile number: 000002
(PID.TID 0000.0001) //         No. X exchanges =              0
(PID.TID 0000.0001) //            Max. X spins =              0
(PID.TID 0000.0001) //            Min. X spins =     1000000000
(PID.TID 0000.0001) //          Total. X spins =              0
(PID.TID 0000.0001) //            Avg. X spins =       0.00E+00
(PID.TID 0000.0001) //         No. Y exchanges =              0
(PID.TID 0000.0001) //            Max. Y spins =              0
(PID.TID 0000.0001) //            Min. Y spins =     1000000000
(PID.TID 0000.0001) //          Total. Y spins =              0
(PID.TID 0000.0001) //            Avg. Y spins =       0.00E+00
(PID.TID 0000.0001) // o Thread number: 000001
(PID.TID 0000.0001) //            No. barriers =           8220
(PID.TID 0000.0001) //      Max. barrier spins =              1
(PID.TID 0000.0001) //      Min. barrier spins =              1
(PID.TID 0000.0001) //     Total barrier spins =           8220
(PID.TID 0000.0001) //      Avg. barrier spins =       1.00E+00
PROGRAM MAIN: Execution ended Normally
