(PID.TID 0000.0001) 
(PID.TID 0000.0001) // ======================================================
(PID.TID 0000.0001) //                      MITgcm UV
(PID.TID 0000.0001) //                      =========
(PID.TID 0000.0001) // ======================================================
(PID.TID 0000.0001) // execution environment starting up...
(PID.TID 0000.0001) 
(PID.TID 0000.0001) // MITgcmUV version:  checkpoint64d
(PID.TID 0000.0001) // Build user:        jahn
(PID.TID 0000.0001) // Build host:        saramago.mit.edu
(PID.TID 0000.0001) // Build date:        Sun Mar  3 04:12:17 EST 2013
(PID.TID 0000.0001) 
(PID.TID 0000.0001) // =======================================================
(PID.TID 0000.0001) // Execution Environment parameter file "eedata"
(PID.TID 0000.0001) // =======================================================
(PID.TID 0000.0001) ># Example "eedata" file
(PID.TID 0000.0001) ># Lines beginning "#" are comments
(PID.TID 0000.0001) ># nTx - No. threads per process in X
(PID.TID 0000.0001) ># nTy - No. threads per process in Y
(PID.TID 0000.0001) > &EEPARMS
(PID.TID 0000.0001) > nTx=1,
(PID.TID 0000.0001) > nTy=1,
(PID.TID 0000.0001) > printMapIncludesZeros = .TRUE.
(PID.TID 0000.0001) > /
(PID.TID 0000.0001) ># Note: Some systems use & as the
(PID.TID 0000.0001) ># namelist terminator. Other systems
(PID.TID 0000.0001) ># use a / character (as shown here).
(PID.TID 0000.0001) 
(PID.TID 0000.0001) // =======================================================
(PID.TID 0000.0001) // Computational Grid Specification ( see files "SIZE.h" )
(PID.TID 0000.0001) //                                  ( and "eedata"       )
(PID.TID 0000.0001) // =======================================================
(PID.TID 0000.0001)      nPx =    1 ; /* No. processes in X */
(PID.TID 0000.0001)      nPy =    1 ; /* No. processes in Y */
(PID.TID 0000.0001)      nSx =    2 ; /* No. tiles in X per process */
(PID.TID 0000.0001)      nSy =    2 ; /* No. tiles in Y per process */
(PID.TID 0000.0001)      sNx =   38 ; /* Tile size in X */
(PID.TID 0000.0001)      sNy =   36 ; /* Tile size in Y */
(PID.TID 0000.0001)      OLx =    4 ; /* Tile overlap distance in X */
(PID.TID 0000.0001)      OLy =    4 ; /* Tile overlap distance in Y */
(PID.TID 0000.0001)      nTx =    1 ; /* No. threads in X per process */
(PID.TID 0000.0001)      nTy =    1 ; /* No. threads in Y per process */
(PID.TID 0000.0001)       Nr =   24 ; /* No. levels in the vertical   */
(PID.TID 0000.0001)       Nx =   76 ; /* Total domain size in X ( = nPx*nSx*sNx ) */
(PID.TID 0000.0001)       Ny =   72 ; /* Total domain size in Y ( = nPy*nSy*sNy ) */
(PID.TID 0000.0001)   nTiles =    4 ; /* Total no. tiles per process ( = nSx*nSy ) */
(PID.TID 0000.0001)   nProcs =    1 ; /* Total no. processes ( = nPx*nPy ) */
(PID.TID 0000.0001) nThreads =    1 ; /* Total no. threads per process ( = nTx*nTy ) */
(PID.TID 0000.0001) usingMPI =    F ; /* Flag used to control whether MPI is in use */
(PID.TID 0000.0001)                   /*  note: To execute a program with MPI calls */
(PID.TID 0000.0001)                   /*  it must be launched appropriately e.g     */
(PID.TID 0000.0001)                   /*  "mpirun -np 64 ......"                    */
(PID.TID 0000.0001) useCoupler=    F ;/* Flag used to control communications with   */
(PID.TID 0000.0001)                   /*  other model components, through a coupler */
(PID.TID 0000.0001) debugMode =    F ; /* print debug msg. (sequence of S/R calls)  */
(PID.TID 0000.0001) printMapIncludesZeros=    T ; /* print zeros in Std.Output maps */
(PID.TID 0000.0001) maxLengthPrt1D=   65 /* maxLength of 1D array printed to StdOut */
(PID.TID 0000.0001) 
(PID.TID 0000.0001) // ======================================================
(PID.TID 0000.0001) // Mapping of tiles to threads
(PID.TID 0000.0001) // ======================================================
(PID.TID 0000.0001) // -o- Thread   1, tiles (   1:   2,   1:   2)
(PID.TID 0000.0001) 
(PID.TID 0000.0001) // ======================================================
(PID.TID 0000.0001) // Tile <-> Tile connectvity table
(PID.TID 0000.0001) // ======================================================
(PID.TID 0000.0001) // Tile number: 000001 (process no. = 000000)
(PID.TID 0000.0001) //        WEST: Tile = 000002, Process = 000000, Comm = put
(PID.TID 0000.0001) //                bi = 000002, bj = 000001
(PID.TID 0000.0001) //        EAST: Tile = 000002, Process = 000000, Comm = put
(PID.TID 0000.0001) //                bi = 000002, bj = 000001
(PID.TID 0000.0001) //       SOUTH: Tile = 000003, Process = 000000, Comm = put
(PID.TID 0000.0001) //                bi = 000001, bj = 000002
(PID.TID 0000.0001) //       NORTH: Tile = 000003, Process = 000000, Comm = put
(PID.TID 0000.0001) //                bi = 000001, bj = 000002
(PID.TID 0000.0001) // Tile number: 000002 (process no. = 000000)
(PID.TID 0000.0001) //        WEST: Tile = 000001, Process = 000000, Comm = put
(PID.TID 0000.0001) //                bi = 000001, bj = 000001
(PID.TID 0000.0001) //        EAST: Tile = 000001, Process = 000000, Comm = put
(PID.TID 0000.0001) //                bi = 000001, bj = 000001
(PID.TID 0000.0001) //       SOUTH: Tile = 000004, Process = 000000, Comm = put
(PID.TID 0000.0001) //                bi = 000002, bj = 000002
(PID.TID 0000.0001) //       NORTH: Tile = 000004, Process = 000000, Comm = put
(PID.TID 0000.0001) //                bi = 000002, bj = 000002
(PID.TID 0000.0001) // Tile number: 000003 (process no. = 000000)
(PID.TID 0000.0001) //        WEST: Tile = 000004, Process = 000000, Comm = put
(PID.TID 0000.0001) //                bi = 000002, bj = 000002
(PID.TID 0000.0001) //        EAST: Tile = 000004, Process = 000000, Comm = put
(PID.TID 0000.0001) //                bi = 000002, bj = 000002
(PID.TID 0000.0001) //       SOUTH: Tile = 000001, Process = 000000, Comm = put
(PID.TID 0000.0001) //                bi = 000001, bj = 000001
(PID.TID 0000.0001) //       NORTH: Tile = 000001, Process = 000000, Comm = put
(PID.TID 0000.0001) //                bi = 000001, bj = 000001
(PID.TID 0000.0001) // Tile number: 000004 (process no. = 000000)
(PID.TID 0000.0001) //        WEST: Tile = 000003, Process = 000000, Comm = put
(PID.TID 0000.0001) //                bi = 000001, bj = 000002
(PID.TID 0000.0001) //        EAST: Tile = 000003, Process = 000000, Comm = put
(PID.TID 0000.0001) //                bi = 000001, bj = 000002
(PID.TID 0000.0001) //       SOUTH: Tile = 000002, Process = 000000, Comm = put
(PID.TID 0000.0001) //                bi = 000002, bj = 000001
(PID.TID 0000.0001) //       NORTH: Tile = 000002, Process = 000000, Comm = put
(PID.TID 0000.0001) //                bi = 000002, bj = 000001
(PID.TID 0000.0001) 
(PID.TID 0000.0001)  INI_PARMS: opening model parameter file "data"
(PID.TID 0000.0001)  OPEN_COPY_DATA_FILE: opening file data
(PID.TID 0000.0001) // =======================================================
(PID.TID 0000.0001) // Parameter file "data"
(PID.TID 0000.0001) // =======================================================
(PID.TID 0000.0001) ># ====================
(PID.TID 0000.0001) ># | Model parameters |
(PID.TID 0000.0001) ># ====================
(PID.TID 0000.0001) >#
(PID.TID 0000.0001) ># Continuous equation parameters
(PID.TID 0000.0001) > &PARM01
(PID.TID 0000.0001) > tRef               = 3*23.,3*22.,21.,2*20.,19.,2*18.,17.,2*16.,15.,14.,13.,
(PID.TID 0000.0001) >                      12.,11.,2*9.,8.,7.
(PID.TID 0000.0001) > sRef               = 24*34.5,
(PID.TID 0000.0001) > viscAr= 6.0826e-04,
(PID.TID 0000.0001) > no_slip_sides=.FALSE.,
(PID.TID 0000.0001) > no_slip_bottom=.TRUE.,
(PID.TID 0000.0001) > diffKrT=1.e-6,
(PID.TID 0000.0001) > diffKrS=1.e-6,
(PID.TID 0000.0001) > rhonil=1027.5,
(PID.TID 0000.0001) > rhoConstFresh=999.8,
(PID.TID 0000.0001) > eosType='JMD95Z',
(PID.TID 0000.0001) > hFacMinDr=50.,
(PID.TID 0000.0001) > hFacMin=0.3,
(PID.TID 0000.0001) > hFacInf=0.1,
(PID.TID 0000.0001) > hFacSup=5.,
(PID.TID 0000.0001) ># select_rStar=2,
(PID.TID 0000.0001) ># nonlinFreeSurf=4,
(PID.TID 0000.0001) > implicitDiffusion=.TRUE.,
(PID.TID 0000.0001) > implicitViscosity=.TRUE.,
(PID.TID 0000.0001) > viscC4Leith=1.5,
(PID.TID 0000.0001) > viscC4Leithd=1.5,
(PID.TID 0000.0001) > viscA4GridMax=0.5,
(PID.TID 0000.0001) > useAreaViscLength=.TRUE.,
(PID.TID 0000.0001) > sideDragFactor=0.,
(PID.TID 0000.0001) > highOrderVorticity  = .TRUE.,
(PID.TID 0000.0001) > bottomDragQuadratic = 0.002,
(PID.TID 0000.0001) > tempAdvScheme=7,
(PID.TID 0000.0001) > saltAdvScheme=7,
(PID.TID 0000.0001) > StaggerTimeStep=.TRUE.,
(PID.TID 0000.0001) > multiDimAdvection=.TRUE.,
(PID.TID 0000.0001) > vectorInvariantMomentum=.TRUE.,
(PID.TID 0000.0001) > implicitFreeSurface=.TRUE.,
(PID.TID 0000.0001) > exactConserv=.TRUE.,
(PID.TID 0000.0001) >#debuglevel=-1,
(PID.TID 0000.0001) > convertFW2Salt=-1
(PID.TID 0000.0001) ># useRealFreshWaterFlux=.TRUE.,
(PID.TID 0000.0001) > useSingleCPUio=.TRUE.,
(PID.TID 0000.0001) > globalFiles=.TRUE.,
(PID.TID 0000.0001) > writeBinaryPrec=64,
(PID.TID 0000.0001) > /
(PID.TID 0000.0001) >
(PID.TID 0000.0001) ># Elliptic solver parameters
(PID.TID 0000.0001) > &PARM02
(PID.TID 0000.0001) > cg2dMaxIters=100,
(PID.TID 0000.0001) > cg2dTargetResidual=1.E-5,
(PID.TID 0000.0001) > /
(PID.TID 0000.0001) >
(PID.TID 0000.0001) ># Time stepping parameters
(PID.TID 0000.0001) > &PARM03
(PID.TID 0000.0001) ># 19930701
(PID.TID 0000.0001) >#niter0=0000039384,
(PID.TID 0000.0001) >#nTimeSteps=73,
(PID.TID 0000.0001) >#nTimeSteps=288,
(PID.TID 0000.0001) ># 19990301
(PID.TID 0000.0001) >#starttime=226022400.,
(PID.TID 0000.0001) >#endtime=226065600.,
(PID.TID 0000.0001) ># 19990301 1200
(PID.TID 0000.0001) > starttime=226065600.,
(PID.TID 0000.0001) > nTimeSteps=4,
(PID.TID 0000.0001) ># 19990301 1200
(PID.TID 0000.0001) >#starttime=36720000.,
(PID.TID 0000.0001) >#starttime=63158400.,
(PID.TID 0000.0001) >#starttime=94694400.,
(PID.TID 0000.0001) >#starttime=126230400.,
(PID.TID 0000.0001) >#starttime=157852800.,
(PID.TID 0000.0001) >#starttime=189388800.,
(PID.TID 0000.0001) >#starttime=220924800.,
(PID.TID 0000.0001) >#starttime=252460800.,
(PID.TID 0000.0001) >#starttime=284083200.,
(PID.TID 0000.0001) >#starttime=315619200.,
(PID.TID 0000.0001) ># 19930201
(PID.TID 0000.0001) >#endtime=34300800.,
(PID.TID 0000.0001) ># 19930301
(PID.TID 0000.0001) >#endtime=36720000.,
(PID.TID 0000.0001) ># 19930401
(PID.TID 0000.0001) >#endtime=39398400.,
(PID.TID 0000.0001) ># 19930501
(PID.TID 0000.0001) >#endtime=41990400.,
(PID.TID 0000.0001) ># 19930601
(PID.TID 0000.0001) >#endtime=44668800.,
(PID.TID 0000.0001) ># 19930701
(PID.TID 0000.0001) >#endtime=47260800.,
(PID.TID 0000.0001) ># 19930801
(PID.TID 0000.0001) >#endtime=49939200.,
(PID.TID 0000.0001) ># 19940101
(PID.TID 0000.0001) >#endtime=63158400.,
(PID.TID 0000.0001) ># 19950101
(PID.TID 0000.0001) >#endtime=94694400.,
(PID.TID 0000.0001) ># 19960101
(PID.TID 0000.0001) >#endtime=126230400.,
(PID.TID 0000.0001) ># 19970101
(PID.TID 0000.0001) >#endtime=157852800.,
(PID.TID 0000.0001) ># 19980101
(PID.TID 0000.0001) >#endtime=189388800.,
(PID.TID 0000.0001) ># 19990101
(PID.TID 0000.0001) >#endtime=220924800.,
(PID.TID 0000.0001) ># 19990301
(PID.TID 0000.0001) >#endtime=226022400.,
(PID.TID 0000.0001) ># 19990301 1200
(PID.TID 0000.0001) >#endtime=226065600.,
(PID.TID 0000.0001) ># 20000101
(PID.TID 0000.0001) >#endtime=252460800.,
(PID.TID 0000.0001) ># 20010101
(PID.TID 0000.0001) >#endtime=284083200.,
(PID.TID 0000.0001) ># 20020101
(PID.TID 0000.0001) >#endtime=315619200.,
(PID.TID 0000.0001) ># 20020701
(PID.TID 0000.0001) >#endtime=331257600.,
(PID.TID 0000.0001) >#endtime=347155200.,
(PID.TID 0000.0001) > abEps=0.1,
(PID.TID 0000.0001) > deltaT=1200,
(PID.TID 0000.0001) > cAdjFreq=0.,
(PID.TID 0000.0001) > pickupStrictlyMatch=.FALSE.,
(PID.TID 0000.0001) >#pChkptFreq=31536000.,
(PID.TID 0000.0001) > pChkptFreq=2678400.,
(PID.TID 0000.0001) > chkptFreq=2592000.,
(PID.TID 0000.0001) >#now in data.exf:
(PID.TID 0000.0001) >#tauSaltClimRelax = 8722203.,
(PID.TID 0000.0001) > monitorFreq=1200.,
(PID.TID 0000.0001) >#diagFreq=1200.,
(PID.TID 0000.0001) > forcing_In_AB = .FALSE.,
(PID.TID 0000.0001) > dumpInitAndLast=.FALSE.,
(PID.TID 0000.0001) > /
(PID.TID 0000.0001) >
(PID.TID 0000.0001) ># Gridding parameters
(PID.TID 0000.0001) > &PARM04
(PID.TID 0000.0001) > usingCartesianGrid=.FALSE.,
(PID.TID 0000.0001) > usingSphericalPolarGrid=.FALSE.,
(PID.TID 0000.0001) > usingCurvilinearGrid=.TRUE.,
(PID.TID 0000.0001) > delR   = 10.00, 10.00, 10.00, 10.00, 10.00, 10.00, 10.00, 10.01,
(PID.TID 0000.0001) > 10.03, 10.11, 10.32, 10.80, 11.76, 13.42, 16.04 , 19.82, 24.85,
(PID.TID 0000.0001) > 31.10, 38.42, 46.50, 55.00, 63.50, 71.58, 78.90
(PID.TID 0000.0001) > /
(PID.TID 0000.0001) >
(PID.TID 0000.0001) ># Input datasets
(PID.TID 0000.0001) > &PARM05
(PID.TID 0000.0001) > bathyFile      ='ETOPO2_76x72_baltic_corr',
(PID.TID 0000.0001) > hydrogThetaFile='',
(PID.TID 0000.0001) > hydrogSaltFile ='',
(PID.TID 0000.0001) > /
(PID.TID 0000.0001) 
(PID.TID 0000.0001)  INI_PARMS ; starts to read PARM01
(PID.TID 0000.0001)  INI_PARMS ; read PARM01 : OK
(PID.TID 0000.0001)  INI_PARMS ; starts to read PARM02
(PID.TID 0000.0001)  INI_PARMS ; read PARM02 : OK
(PID.TID 0000.0001)  INI_PARMS ; starts to read PARM03
(PID.TID 0000.0001)  INI_PARMS ; read PARM03 : OK
(PID.TID 0000.0001)  INI_PARMS ; starts to read PARM04
(PID.TID 0000.0001)  INI_PARMS ; read PARM04 : OK
(PID.TID 0000.0001)  INI_PARMS ; starts to read PARM05
(PID.TID 0000.0001)  INI_PARMS ; read PARM05 : OK
(PID.TID 0000.0001)  INI_PARMS: finished reading file "data"
(PID.TID 0000.0001)  PACKAGES_BOOT: opening data.pkg
(PID.TID 0000.0001)  OPEN_COPY_DATA_FILE: opening file data.pkg
(PID.TID 0000.0001) // =======================================================
(PID.TID 0000.0001) // Parameter file "data.pkg"
(PID.TID 0000.0001) // =======================================================
(PID.TID 0000.0001) ># Packages
(PID.TID 0000.0001) > &PACKAGES
(PID.TID 0000.0001) > useEXF         = .TRUE.,
(PID.TID 0000.0001) > useSEAICE      = .TRUE.,
(PID.TID 0000.0001) > useKPP         = .TRUE.,
(PID.TID 0000.0001) > useDiagnostics = .TRUE.,
(PID.TID 0000.0001) > useOBCS        = .TRUE.,
(PID.TID 0000.0001) > usePTRACERS    = .TRUE.,
(PID.TID 0000.0001) > useGCHEM       = .TRUE.,
(PID.TID 0000.0001) > useMNC         = .FALSE.,
(PID.TID 0000.0001) > /
(PID.TID 0000.0001) 
(PID.TID 0000.0001)  PACKAGES_BOOT: finished reading data.pkg
(PID.TID 0000.0001) CAL_READPARMS: opening data.cal
(PID.TID 0000.0001)  OPEN_COPY_DATA_FILE: opening file data.cal
(PID.TID 0000.0001) // =======================================================
(PID.TID 0000.0001) // Parameter file "data.cal"
(PID.TID 0000.0001) // =======================================================
(PID.TID 0000.0001) >#
(PID.TID 0000.0001) ># *******************
(PID.TID 0000.0001) ># Calendar Parameters
(PID.TID 0000.0001) ># *******************
(PID.TID 0000.0001) > &CAL_NML
(PID.TID 0000.0001) > TheCalendar='gregorian',
(PID.TID 0000.0001) > startDate_1=19920101,
(PID.TID 0000.0001) > startDate_2=000000,
(PID.TID 0000.0001) > calendarDumps = .TRUE.
(PID.TID 0000.0001) > /
(PID.TID 0000.0001) 
(PID.TID 0000.0001) CAL_READPARMS: finished reading data.cal
(PID.TID 0000.0001) EXF_READPARMS: opening data.exf
(PID.TID 0000.0001)  OPEN_COPY_DATA_FILE: opening file data.exf
(PID.TID 0000.0001) // =======================================================
(PID.TID 0000.0001) // Parameter file "data.exf"
(PID.TID 0000.0001) // =======================================================
(PID.TID 0000.0001) ># *********************
(PID.TID 0000.0001) ># External Forcing Data
(PID.TID 0000.0001) ># *********************
(PID.TID 0000.0001) >#
(PID.TID 0000.0001) > &EXF_NML_01
(PID.TID 0000.0001) > exf_albedo        = 0.15,
(PID.TID 0000.0001) > exf_iprec         = 32,
(PID.TID 0000.0001) > exf_yftype        = 'RL',
(PID.TID 0000.0001) > useExfYearlyFields= .TRUE.,
(PID.TID 0000.0001) > twoDigitYear      = .TRUE.,
(PID.TID 0000.0001) > useExfCheckRange  = .FALSE.,
(PID.TID 0000.0001) > /
(PID.TID 0000.0001) >#
(PID.TID 0000.0001) > &EXF_NML_02
(PID.TID 0000.0001) > atempfile         = 'RG_tmp2m',
(PID.TID 0000.0001) > aqhfile           = 'RG_spfh2m',
(PID.TID 0000.0001) > precipfile        = 'RG_rain',
(PID.TID 0000.0001) > runofffile        = 'runoff-360x180x12.bin',
(PID.TID 0000.0001) > uwindfile         = 'RG_u10m',
(PID.TID 0000.0001) > vwindfile         = 'RG_v10m',
(PID.TID 0000.0001) > swdownfile        = 'RG_dsw',
(PID.TID 0000.0001) > lwdownfile        = 'RG_dlw',
(PID.TID 0000.0001) > climsssfile       = 'LEV01_SSS_360x180x12.bin',
(PID.TID 0000.0001) >#
(PID.TID 0000.0001) > atempstartdate1   = 19990301,
(PID.TID 0000.0001) > atempstartdate2   = 120000,
(PID.TID 0000.0001) > atempperiod       = 21600.0,
(PID.TID 0000.0001) >#
(PID.TID 0000.0001) > aqhstartdate1     = 19990301,
(PID.TID 0000.0001) > aqhstartdate2     = 120000,
(PID.TID 0000.0001) > aqhperiod         = 21600.0,
(PID.TID 0000.0001) >#
(PID.TID 0000.0001) > precipstartdate1  = 19990301,
(PID.TID 0000.0001) > precipstartdate2  = 120000,
(PID.TID 0000.0001) > precipperiod      = 21600.0,
(PID.TID 0000.0001) >#
(PID.TID 0000.0001) > runoffperiod      = -12.,
(PID.TID 0000.0001) >#
(PID.TID 0000.0001) > uwindstartdate1   = 19990301,
(PID.TID 0000.0001) > uwindstartdate2   = 120000,
(PID.TID 0000.0001) > uwindperiod       = 21600.0,
(PID.TID 0000.0001) >#
(PID.TID 0000.0001) > vwindstartdate1   = 19990301,
(PID.TID 0000.0001) > vwindstartdate2   = 120000,
(PID.TID 0000.0001) > vwindperiod       = 21600.0,
(PID.TID 0000.0001) >#
(PID.TID 0000.0001) > swdownstartdate1  = 19990301,
(PID.TID 0000.0001) > swdownstartdate2  = 090000,
(PID.TID 0000.0001) > swdownperiod      = 21600.0,
(PID.TID 0000.0001) >#
(PID.TID 0000.0001) > lwdownstartdate1  = 19990301,
(PID.TID 0000.0001) > lwdownstartdate2  = 090000,
(PID.TID 0000.0001) > lwdownperiod      = 21600.0,
(PID.TID 0000.0001) >#
(PID.TID 0000.0001) > climsssperiod     = -12.,
(PID.TID 0000.0001) > climsssTauRelax   = 8722203.,
(PID.TID 0000.0001) > /
(PID.TID 0000.0001) >#
(PID.TID 0000.0001) > &EXF_NML_03
(PID.TID 0000.0001) > exf_offset_atemp  = 273.3971,
(PID.TID 0000.0001) > exf_inscal_runoff = 3.1710e-08,
(PID.TID 0000.0001) > /
(PID.TID 0000.0001) >#
(PID.TID 0000.0001) > &EXF_NML_04
(PID.TID 0000.0001) > atemp_lon0        = 0.00D0,
(PID.TID 0000.0001) > atemp_lon_inc     = 1.875D0,
(PID.TID 0000.0001) > atemp_lat0        = -88.5420D0,
(PID.TID 0000.0001) > atemp_lat_inc     = 1.8888, 1.9000, 1.9024, 1.9034, 1.9039, 1.9042,
(PID.TID 0000.0001) >     1.9042, 1.9044, 1.9045, 1.9045, 1.9046, 1.9046, 1.9046, 1.9046,
(PID.TID 0000.0001) >     1.9047, 1.9046, 1.9047, 1.9047, 1.9047, 1.9047, 1.9047, 1.9047,
(PID.TID 0000.0001) >     1.9047, 1.9047, 1.9047, 1.9047, 1.9048, 1.9047, 1.9047, 1.9047,
(PID.TID 0000.0001) >     1.9047, 1.9048, 1.9047, 1.9047, 1.9048, 1.9047, 1.9047, 1.9048,
(PID.TID 0000.0001) >     1.9047, 1.9047, 1.9048, 1.9047, 1.9047, 1.9048, 1.9047, 1.9047,
(PID.TID 0000.0001) >     1.9048, 1.9047, 1.9047, 1.9048, 1.9047, 1.9047, 1.9048, 1.9047,
(PID.TID 0000.0001) >     1.9047, 1.9048, 1.9047, 1.9047, 1.9048, 1.9047, 1.9047, 1.9048,
(PID.TID 0000.0001) >     1.9047, 1.9047, 1.9047, 1.9047, 1.9048, 1.9047, 1.9047, 1.9047,
(PID.TID 0000.0001) >     1.9047, 1.9047, 1.9047, 1.9047, 1.9047, 1.9047, 1.9047, 1.9046,
(PID.TID 0000.0001) >     1.9047, 1.9046, 1.9046, 1.9046, 1.9046, 1.9045, 1.9045, 1.9044,
(PID.TID 0000.0001) >     1.9042, 1.9042, 1.9039, 1.9034, 1.9024, 1.9000, 1.8888, 1.8888,
(PID.TID 0000.0001) > atemp_nlon        = 192,
(PID.TID 0000.0001) > atemp_nlat        = 94,
(PID.TID 0000.0001) >#
(PID.TID 0000.0001) > aqh_lon0          = 0.00D0,
(PID.TID 0000.0001) > aqh_lon_inc       = 1.875D0,
(PID.TID 0000.0001) > aqh_lat0          = -88.5420D0,
(PID.TID 0000.0001) > aqh_lat_inc       = 1.8888, 1.9000, 1.9024, 1.9034, 1.9039, 1.9042,
(PID.TID 0000.0001) >     1.9042, 1.9044, 1.9045, 1.9045, 1.9046, 1.9046, 1.9046, 1.9046,
(PID.TID 0000.0001) >     1.9047, 1.9046, 1.9047, 1.9047, 1.9047, 1.9047, 1.9047, 1.9047,
(PID.TID 0000.0001) >     1.9047, 1.9047, 1.9047, 1.9047, 1.9048, 1.9047, 1.9047, 1.9047,
(PID.TID 0000.0001) >     1.9047, 1.9048, 1.9047, 1.9047, 1.9048, 1.9047, 1.9047, 1.9048,
(PID.TID 0000.0001) >     1.9047, 1.9047, 1.9048, 1.9047, 1.9047, 1.9048, 1.9047, 1.9047,
(PID.TID 0000.0001) >     1.9048, 1.9047, 1.9047, 1.9048, 1.9047, 1.9047, 1.9048, 1.9047,
(PID.TID 0000.0001) >     1.9047, 1.9048, 1.9047, 1.9047, 1.9048, 1.9047, 1.9047, 1.9048,
(PID.TID 0000.0001) >     1.9047, 1.9047, 1.9047, 1.9047, 1.9048, 1.9047, 1.9047, 1.9047,
(PID.TID 0000.0001) >     1.9047, 1.9047, 1.9047, 1.9047, 1.9047, 1.9047, 1.9047, 1.9046,
(PID.TID 0000.0001) >     1.9047, 1.9046, 1.9046, 1.9046, 1.9046, 1.9045, 1.9045, 1.9044,
(PID.TID 0000.0001) >     1.9042, 1.9042, 1.9039, 1.9034, 1.9024, 1.9000, 1.8888, 1.8888,
(PID.TID 0000.0001) > aqh_nlon          = 192,
(PID.TID 0000.0001) > aqh_nlat          = 94,
(PID.TID 0000.0001) >#
(PID.TID 0000.0001) > precip_lon0       = 0.00D0,
(PID.TID 0000.0001) > precip_lon_inc    = 1.875D0,
(PID.TID 0000.0001) > precip_lat0       = -88.5420D0,
(PID.TID 0000.0001) > precip_lat_inc    = 1.8888, 1.9000, 1.9024, 1.9034, 1.9039, 1.9042,
(PID.TID 0000.0001) >     1.9042, 1.9044, 1.9045, 1.9045, 1.9046, 1.9046, 1.9046, 1.9046,
(PID.TID 0000.0001) >     1.9047, 1.9046, 1.9047, 1.9047, 1.9047, 1.9047, 1.9047, 1.9047,
(PID.TID 0000.0001) >     1.9047, 1.9047, 1.9047, 1.9047, 1.9048, 1.9047, 1.9047, 1.9047,
(PID.TID 0000.0001) >     1.9047, 1.9048, 1.9047, 1.9047, 1.9048, 1.9047, 1.9047, 1.9048,
(PID.TID 0000.0001) >     1.9047, 1.9047, 1.9048, 1.9047, 1.9047, 1.9048, 1.9047, 1.9047,
(PID.TID 0000.0001) >     1.9048, 1.9047, 1.9047, 1.9048, 1.9047, 1.9047, 1.9048, 1.9047,
(PID.TID 0000.0001) >     1.9047, 1.9048, 1.9047, 1.9047, 1.9048, 1.9047, 1.9047, 1.9048,
(PID.TID 0000.0001) >     1.9047, 1.9047, 1.9047, 1.9047, 1.9048, 1.9047, 1.9047, 1.9047,
(PID.TID 0000.0001) >     1.9047, 1.9047, 1.9047, 1.9047, 1.9047, 1.9047, 1.9047, 1.9046,
(PID.TID 0000.0001) >     1.9047, 1.9046, 1.9046, 1.9046, 1.9046, 1.9045, 1.9045, 1.9044,
(PID.TID 0000.0001) >     1.9042, 1.9042, 1.9039, 1.9034, 1.9024, 1.9000, 1.8888, 1.8888,
(PID.TID 0000.0001) > precip_nlon       = 192,
(PID.TID 0000.0001) > precip_nlat       = 94,
(PID.TID 0000.0001) >#
(PID.TID 0000.0001) > runoff_lon0       = 0.50D0,
(PID.TID 0000.0001) > runoff_lon_inc    = 1.0D0,
(PID.TID 0000.0001) > runoff_lat0       = -89.5D0,
(PID.TID 0000.0001) > runoff_lat_inc    = 179*1.,
(PID.TID 0000.0001) > runoff_nlon       = 360,
(PID.TID 0000.0001) > runoff_nlat       = 180,
(PID.TID 0000.0001) >#
(PID.TID 0000.0001) > uwind_lon0        = 0.00D0,
(PID.TID 0000.0001) > uwind_lon_inc     = 1.875D0,
(PID.TID 0000.0001) > uwind_lat0        = -88.5420D0,
(PID.TID 0000.0001) > uwind_lat_inc     = 1.8888, 1.9000, 1.9024, 1.9034, 1.9039, 1.9042,
(PID.TID 0000.0001) >     1.9042, 1.9044, 1.9045, 1.9045, 1.9046, 1.9046, 1.9046, 1.9046,
(PID.TID 0000.0001) >     1.9047, 1.9046, 1.9047, 1.9047, 1.9047, 1.9047, 1.9047, 1.9047,
(PID.TID 0000.0001) >     1.9047, 1.9047, 1.9047, 1.9047, 1.9048, 1.9047, 1.9047, 1.9047,
(PID.TID 0000.0001) >     1.9047, 1.9048, 1.9047, 1.9047, 1.9048, 1.9047, 1.9047, 1.9048,
(PID.TID 0000.0001) >     1.9047, 1.9047, 1.9048, 1.9047, 1.9047, 1.9048, 1.9047, 1.9047,
(PID.TID 0000.0001) >     1.9048, 1.9047, 1.9047, 1.9048, 1.9047, 1.9047, 1.9048, 1.9047,
(PID.TID 0000.0001) >     1.9047, 1.9048, 1.9047, 1.9047, 1.9048, 1.9047, 1.9047, 1.9048,
(PID.TID 0000.0001) >     1.9047, 1.9047, 1.9047, 1.9047, 1.9048, 1.9047, 1.9047, 1.9047,
(PID.TID 0000.0001) >     1.9047, 1.9047, 1.9047, 1.9047, 1.9047, 1.9047, 1.9047, 1.9046,
(PID.TID 0000.0001) >     1.9047, 1.9046, 1.9046, 1.9046, 1.9046, 1.9045, 1.9045, 1.9044,
(PID.TID 0000.0001) >     1.9042, 1.9042, 1.9039, 1.9034, 1.9024, 1.9000, 1.8888, 1.8888,
(PID.TID 0000.0001) > uwind_nlon        = 192,
(PID.TID 0000.0001) > uwind_nlat        = 94,
(PID.TID 0000.0001) >#
(PID.TID 0000.0001) > vwind_lon0        = 0.00D0,
(PID.TID 0000.0001) > vwind_lon_inc     = 1.875D0,
(PID.TID 0000.0001) > vwind_lat0        = -88.5420D0,
(PID.TID 0000.0001) > vwind_lat_inc     = 1.8888, 1.9000, 1.9024, 1.9034, 1.9039, 1.9042,
(PID.TID 0000.0001) >     1.9042, 1.9044, 1.9045, 1.9045, 1.9046, 1.9046, 1.9046, 1.9046,
(PID.TID 0000.0001) >     1.9047, 1.9046, 1.9047, 1.9047, 1.9047, 1.9047, 1.9047, 1.9047,
(PID.TID 0000.0001) >     1.9047, 1.9047, 1.9047, 1.9047, 1.9048, 1.9047, 1.9047, 1.9047,
(PID.TID 0000.0001) >     1.9047, 1.9048, 1.9047, 1.9047, 1.9048, 1.9047, 1.9047, 1.9048,
(PID.TID 0000.0001) >     1.9047, 1.9047, 1.9048, 1.9047, 1.9047, 1.9048, 1.9047, 1.9047,
(PID.TID 0000.0001) >     1.9048, 1.9047, 1.9047, 1.9048, 1.9047, 1.9047, 1.9048, 1.9047,
(PID.TID 0000.0001) >     1.9047, 1.9048, 1.9047, 1.9047, 1.9048, 1.9047, 1.9047, 1.9048,
(PID.TID 0000.0001) >     1.9047, 1.9047, 1.9047, 1.9047, 1.9048, 1.9047, 1.9047, 1.9047,
(PID.TID 0000.0001) >     1.9047, 1.9047, 1.9047, 1.9047, 1.9047, 1.9047, 1.9047, 1.9046,
(PID.TID 0000.0001) >     1.9047, 1.9046, 1.9046, 1.9046, 1.9046, 1.9045, 1.9045, 1.9044,
(PID.TID 0000.0001) >     1.9042, 1.9042, 1.9039, 1.9034, 1.9024, 1.9000, 1.8888, 1.8888,
(PID.TID 0000.0001) > vwind_nlon        = 192,
(PID.TID 0000.0001) > vwind_nlat        = 94,
(PID.TID 0000.0001) >#
(PID.TID 0000.0001) > swdown_lon0       = 0.00D0,
(PID.TID 0000.0001) > swdown_lon_inc    = 1.875D0,
(PID.TID 0000.0001) > swdown_lat0       = -88.5420D0,
(PID.TID 0000.0001) > swdown_lat_inc    = 1.8888, 1.9000, 1.9024, 1.9034, 1.9039, 1.9042,
(PID.TID 0000.0001) >     1.9042, 1.9044, 1.9045, 1.9045, 1.9046, 1.9046, 1.9046, 1.9046,
(PID.TID 0000.0001) >     1.9047, 1.9046, 1.9047, 1.9047, 1.9047, 1.9047, 1.9047, 1.9047,
(PID.TID 0000.0001) >     1.9047, 1.9047, 1.9047, 1.9047, 1.9048, 1.9047, 1.9047, 1.9047,
(PID.TID 0000.0001) >     1.9047, 1.9048, 1.9047, 1.9047, 1.9048, 1.9047, 1.9047, 1.9048,
(PID.TID 0000.0001) >     1.9047, 1.9047, 1.9048, 1.9047, 1.9047, 1.9048, 1.9047, 1.9047,
(PID.TID 0000.0001) >     1.9048, 1.9047, 1.9047, 1.9048, 1.9047, 1.9047, 1.9048, 1.9047,
(PID.TID 0000.0001) >     1.9047, 1.9048, 1.9047, 1.9047, 1.9048, 1.9047, 1.9047, 1.9048,
(PID.TID 0000.0001) >     1.9047, 1.9047, 1.9047, 1.9047, 1.9048, 1.9047, 1.9047, 1.9047,
(PID.TID 0000.0001) >     1.9047, 1.9047, 1.9047, 1.9047, 1.9047, 1.9047, 1.9047, 1.9046,
(PID.TID 0000.0001) >     1.9047, 1.9046, 1.9046, 1.9046, 1.9046, 1.9045, 1.9045, 1.9044,
(PID.TID 0000.0001) >     1.9042, 1.9042, 1.9039, 1.9034, 1.9024, 1.9000, 1.8888, 1.8888,
(PID.TID 0000.0001) > swdown_nlon       = 192,
(PID.TID 0000.0001) > swdown_nlat       = 94,
(PID.TID 0000.0001) >#
(PID.TID 0000.0001) > lwdown_lon0       = 0.00D0,
(PID.TID 0000.0001) > lwdown_lon_inc    = 1.875D0,
(PID.TID 0000.0001) > lwdown_lat0       = -88.5420D0,
(PID.TID 0000.0001) > lwdown_lat_inc    = 1.8888, 1.9000, 1.9024, 1.9034, 1.9039, 1.9042,
(PID.TID 0000.0001) >     1.9042, 1.9044, 1.9045, 1.9045, 1.9046, 1.9046, 1.9046, 1.9046,
(PID.TID 0000.0001) >     1.9047, 1.9046, 1.9047, 1.9047, 1.9047, 1.9047, 1.9047, 1.9047,
(PID.TID 0000.0001) >     1.9047, 1.9047, 1.9047, 1.9047, 1.9048, 1.9047, 1.9047, 1.9047,
(PID.TID 0000.0001) >     1.9047, 1.9048, 1.9047, 1.9047, 1.9048, 1.9047, 1.9047, 1.9048,
(PID.TID 0000.0001) >     1.9047, 1.9047, 1.9048, 1.9047, 1.9047, 1.9048, 1.9047, 1.9047,
(PID.TID 0000.0001) >     1.9048, 1.9047, 1.9047, 1.9048, 1.9047, 1.9047, 1.9048, 1.9047,
(PID.TID 0000.0001) >     1.9047, 1.9048, 1.9047, 1.9047, 1.9048, 1.9047, 1.9047, 1.9048,
(PID.TID 0000.0001) >     1.9047, 1.9047, 1.9047, 1.9047, 1.9048, 1.9047, 1.9047, 1.9047,
(PID.TID 0000.0001) >     1.9047, 1.9047, 1.9047, 1.9047, 1.9047, 1.9047, 1.9047, 1.9046,
(PID.TID 0000.0001) >     1.9047, 1.9046, 1.9046, 1.9046, 1.9046, 1.9045, 1.9045, 1.9044,
(PID.TID 0000.0001) >     1.9042, 1.9042, 1.9039, 1.9034, 1.9024, 1.9000, 1.8888, 1.8888,
(PID.TID 0000.0001) > lwdown_nlon       = 192,
(PID.TID 0000.0001) > lwdown_nlat       = 94,
(PID.TID 0000.0001) >#
(PID.TID 0000.0001) > climsss_lon0      = 0.5,
(PID.TID 0000.0001) > climsss_lon_inc   = 1.,
(PID.TID 0000.0001) > climsss_lat0      = -89.5,
(PID.TID 0000.0001) > climsss_lat_inc   = 179*1.,
(PID.TID 0000.0001) > climsss_nlon      = 360,
(PID.TID 0000.0001) > climsss_nlat      = 180,
(PID.TID 0000.0001) > /
(PID.TID 0000.0001) >#
(PID.TID 0000.0001) > &EXF_NML_OBCS
(PID.TID 0000.0001) > obcsNstartdate1   = 19990219,
(PID.TID 0000.0001) > obcsNstartdate2   = 060000,
(PID.TID 0000.0001) > obcsNperiod       = 2635200.0,
(PID.TID 0000.0001) >#
(PID.TID 0000.0001) > obcsEstartdate1   = 19990219,
(PID.TID 0000.0001) > obcsEstartdate2   = 060000,
(PID.TID 0000.0001) > obcsEperiod       = 2635200.0,
(PID.TID 0000.0001) >#
(PID.TID 0000.0001) > obcsWstartdate1   = 19990219,
(PID.TID 0000.0001) > obcsWstartdate2   = 060000,
(PID.TID 0000.0001) > obcsWperiod       = 2635200.0,
(PID.TID 0000.0001) > /
(PID.TID 0000.0001) 
(PID.TID 0000.0001) EXF_READPARMS: reading EXF_NML_01
(PID.TID 0000.0001) EXF_READPARMS: reading EXF_NML_02
(PID.TID 0000.0001) EXF_READPARMS: reading EXF_NML_03
(PID.TID 0000.0001) EXF_READPARMS: reading EXF_NML_04
(PID.TID 0000.0001) EXF_READPARMS: reading EXF_NML_OBCS
(PID.TID 0000.0001) EXF_READPARMS: finished reading data.exf
(PID.TID 0000.0001)  KPP_INIT: opening data.kpp
(PID.TID 0000.0001)  OPEN_COPY_DATA_FILE: opening file data.kpp
(PID.TID 0000.0001) // =======================================================
(PID.TID 0000.0001) // Parameter file "data.kpp"
(PID.TID 0000.0001) // =======================================================
(PID.TID 0000.0001) ># KPP parameters
(PID.TID 0000.0001) > &KPP_PARM01
(PID.TID 0000.0001) > KPPmixingMaps   = .FALSE.,
(PID.TID 0000.0001) > KPPwriteState   = .FALSE.,
(PID.TID 0000.0001) > kpp_dumpFreq    = 0.
(PID.TID 0000.0001) > kpp_tavefreq    = 0.
(PID.TID 0000.0001) > Ricr            = 0.3559
(PID.TID 0000.0001) > Riinfty         = 0.6998
(PID.TID 0000.0001) > /
(PID.TID 0000.0001) 
(PID.TID 0000.0001)  KPP_INIT: finished reading data.kpp
(PID.TID 0000.0001) 
(PID.TID 0000.0001)  SEAICE_READPARMS: opening data.seaice
(PID.TID 0000.0001)  OPEN_COPY_DATA_FILE: opening file data.seaice
(PID.TID 0000.0001) // =======================================================
(PID.TID 0000.0001) // Parameter file "data.seaice"
(PID.TID 0000.0001) // =======================================================
(PID.TID 0000.0001) ># SEAICE parameters
(PID.TID 0000.0001) > &SEAICE_PARM01
(PID.TID 0000.0001) >#- seaice dynamics params:
(PID.TID 0000.0001) ># LSR_ERROR          = 1.E-12,
(PID.TID 0000.0001) >  SEAICE_no_slip     = .TRUE.,
(PID.TID 0000.0001) >  SEAICE_drag        = 0.001,
(PID.TID 0000.0001) ># Depending on vertical resolution this angle should have a value > 0
(PID.TID 0000.0001) >#  (e.g., 25deg for drF(1)=10m)
(PID.TID 0000.0001) ># SEAICE_waterTurnAngle = 0.0,
(PID.TID 0000.0001) >#- seaice state & transport params:
(PID.TID 0000.0001) >  SEAICE_salt0       = 4.0,
(PID.TID 0000.0001) >  SEAICEadvScheme    = 7,
(PID.TID 0000.0001) ># for adjoint simulations you will need
(PID.TID 0000.0001) ># SEAICEadvScheme    = 30,
(PID.TID 0000.0001) >#- seaice thermodyn params:
(PID.TID 0000.0001) >  SEAICE_multDim     = 7,
(PID.TID 0000.0001) >  SEAICE_wetAlbTemp  = 0.0,
(PID.TID 0000.0001) ># this value should be default for the McPhee parameterization
(PID.TID 0000.0001) >  SEAICE_mcPheeTaper = 0.92,
(PID.TID 0000.0001) >#- seaice I/O params:
(PID.TID 0000.0001) >  SEAICEwriteState   = .TRUE.,
(PID.TID 0000.0001) > /
(PID.TID 0000.0001) >
(PID.TID 0000.0001) > &SEAICE_PARM03
(PID.TID 0000.0001) >  SItrNumInUse       = 2,
(PID.TID 0000.0001) >  SItrName(1)        = 'age',
(PID.TID 0000.0001) >  SItrMate(1)        = 'AREA',
(PID.TID 0000.0001) >  SItrUnit(1)        = 's',
(PID.TID 0000.0001) >  SItrName(2)        = 'one',
(PID.TID 0000.0001) > /
(PID.TID 0000.0001) 
(PID.TID 0000.0001)  SEAICE_READPARMS: finished reading data.seaice
(PID.TID 0000.0001)  OBCS_READPARMS: opening data.obcs
(PID.TID 0000.0001)  OPEN_COPY_DATA_FILE: opening file data.obcs
(PID.TID 0000.0001) // =======================================================
(PID.TID 0000.0001) // Parameter file "data.obcs"
(PID.TID 0000.0001) // =======================================================
(PID.TID 0000.0001) >#
(PID.TID 0000.0001) ># ***************
(PID.TID 0000.0001) ># Open boundaries
(PID.TID 0000.0001) ># ***************
(PID.TID 0000.0001) > &OBCS_PARM01
(PID.TID 0000.0001) > OB_Jnorth =   76*72,
(PID.TID 0000.0001) > OB_Iwest  =   72*1,
(PID.TID 0000.0001) >#
(PID.TID 0000.0001) >#OBCSfixTopo=.false.,
(PID.TID 0000.0001) >#
(PID.TID 0000.0001) > useOBCSprescribe=.TRUE.,
(PID.TID 0000.0001) >#
(PID.TID 0000.0001) > OBNsFile='OBNs_baltic_76x72.stable',
(PID.TID 0000.0001) > OBNtFile='OBNt_baltic_76x72.stable',
(PID.TID 0000.0001) > OBNuFile='OBNu_baltic_76x72.bin',
(PID.TID 0000.0001) > OBNvFile='OBNv_baltic_76x72.bin',
(PID.TID 0000.0001) > OBWsFile='OBWs_baltic_76x72.stable',
(PID.TID 0000.0001) > OBWtFile='OBWt_baltic_76x72.stable',
(PID.TID 0000.0001) > OBWuFile='OBWu_baltic_76x72.bin',
(PID.TID 0000.0001) > OBWvFile='OBWv_baltic_76x72.bin',
(PID.TID 0000.0001) > OBNptrFile(1)='OBN_PO4_76x72x24_baltic_128.bin',
(PID.TID 0000.0001) > OBWptrFile(1)='OBW_PO4_76x72x24_baltic_128.bin',
(PID.TID 0000.0001) > OBNptrFile(2)='OBN_NO3_76x72x24_baltic_128.bin',
(PID.TID 0000.0001) > OBWptrFile(2)='OBW_NO3_76x72x24_baltic_128.bin',
(PID.TID 0000.0001) > OBNptrFile(3)='OBN_FeT_76x72x24_baltic_128.bin',
(PID.TID 0000.0001) > OBWptrFile(3)='OBW_FeT_76x72x24_baltic_128.bin',
(PID.TID 0000.0001) > OBNptrFile(4)='OBN_SiO2_76x72x24_baltic_128.bin',
(PID.TID 0000.0001) > OBWptrFile(4)='OBW_SiO2_76x72x24_baltic_128.bin',
(PID.TID 0000.0001) > OBNptrFile(5)='OBN_DOP_76x72x24_baltic_128.bin',
(PID.TID 0000.0001) > OBWptrFile(5)='OBW_DOP_76x72x24_baltic_128.bin',
(PID.TID 0000.0001) > OBNptrFile(6)='OBN_DON_76x72x24_baltic_128.bin',
(PID.TID 0000.0001) > OBWptrFile(6)='OBW_DON_76x72x24_baltic_128.bin',
(PID.TID 0000.0001) > OBNptrFile(7)='OBN_DOFe_76x72x24_baltic_128.bin',
(PID.TID 0000.0001) > OBWptrFile(7)='OBW_DOFe_76x72x24_baltic_128.bin',
(PID.TID 0000.0001) > OBNptrFile(8)='OBN_ZOO1P_76x72x24_baltic_128.bin',
(PID.TID 0000.0001) > OBWptrFile(8)='OBW_ZOO1P_76x72x24_baltic_128.bin',
(PID.TID 0000.0001) > OBNptrFile(9)='OBN_ZOO1N_76x72x24_baltic_128.bin',
(PID.TID 0000.0001) > OBWptrFile(9)='OBW_ZOO1N_76x72x24_baltic_128.bin',
(PID.TID 0000.0001) > OBNptrFile(10)='OBN_ZOO1Fe_76x72x24_baltic_128.bin',
(PID.TID 0000.0001) > OBWptrFile(10)='OBW_ZOO1Fe_76x72x24_baltic_128.bin',
(PID.TID 0000.0001) > OBNptrFile(11)='OBN_ZOO1Si_76x72x24_baltic_128.bin',
(PID.TID 0000.0001) > OBWptrFile(11)='OBW_ZOO1Si_76x72x24_baltic_128.bin',
(PID.TID 0000.0001) > OBNptrFile(12)='OBN_ZOO2P_76x72x24_baltic_128.bin',
(PID.TID 0000.0001) > OBWptrFile(12)='OBW_ZOO2P_76x72x24_baltic_128.bin',
(PID.TID 0000.0001) > OBNptrFile(13)='OBN_ZOO2N_76x72x24_baltic_128.bin',
(PID.TID 0000.0001) > OBWptrFile(13)='OBW_ZOO2N_76x72x24_baltic_128.bin',
(PID.TID 0000.0001) > OBNptrFile(14)='OBN_ZOO2Fe_76x72x24_baltic_128.bin',
(PID.TID 0000.0001) > OBWptrFile(14)='OBW_ZOO2Fe_76x72x24_baltic_128.bin',
(PID.TID 0000.0001) > OBNptrFile(15)='OBN_ZOO2Si_76x72x24_baltic_128.bin',
(PID.TID 0000.0001) > OBWptrFile(15)='OBW_ZOO2Si_76x72x24_baltic_128.bin',
(PID.TID 0000.0001) > OBNptrFile(16)='OBN_POP_76x72x24_baltic_128.bin',
(PID.TID 0000.0001) > OBWptrFile(16)='OBW_POP_76x72x24_baltic_128.bin',
(PID.TID 0000.0001) > OBNptrFile(17)='OBN_PON_76x72x24_baltic_128.bin',
(PID.TID 0000.0001) > OBWptrFile(17)='OBW_PON_76x72x24_baltic_128.bin',
(PID.TID 0000.0001) > OBNptrFile(18)='OBN_POFe_76x72x24_baltic_128.bin',
(PID.TID 0000.0001) > OBWptrFile(18)='OBW_POFe_76x72x24_baltic_128.bin',
(PID.TID 0000.0001) > OBNptrFile(19)='OBN_POSi_76x72x24_baltic_128.bin',
(PID.TID 0000.0001) > OBWptrFile(19)='OBW_POSi_76x72x24_baltic_128.bin',
(PID.TID 0000.0001) > OBNptrFile(20)='OBN_NH4_76x72x24_baltic_128.bin',
(PID.TID 0000.0001) > OBWptrFile(20)='OBW_NH4_76x72x24_baltic_128.bin',
(PID.TID 0000.0001) > OBNptrFile(21)='OBN_NO2_76x72x24_baltic_128.bin',
(PID.TID 0000.0001) > OBWptrFile(21)='OBW_NO2_76x72x24_baltic_128.bin',
(PID.TID 0000.0001) > OBNptrFile(22)='OBN_Phy01_76x72x24_baltic_128.bin',
(PID.TID 0000.0001) > OBWptrFile(22)='OBW_Phy01_76x72x24_baltic_128.bin',
(PID.TID 0000.0001) > OBNptrFile(23)='OBN_Phy02_76x72x24_baltic_128.bin',
(PID.TID 0000.0001) > OBWptrFile(23)='OBW_Phy02_76x72x24_baltic_128.bin',
(PID.TID 0000.0001) > OBNptrFile(24)='OBN_Phy03_76x72x24_baltic_128.bin',
(PID.TID 0000.0001) > OBWptrFile(24)='OBW_Phy03_76x72x24_baltic_128.bin',
(PID.TID 0000.0001) > OBNptrFile(25)='OBN_Phy04_76x72x24_baltic_128.bin',
(PID.TID 0000.0001) > OBWptrFile(25)='OBW_Phy04_76x72x24_baltic_128.bin',
(PID.TID 0000.0001) > OBNptrFile(26)='OBN_Phy05_76x72x24_baltic_128.bin',
(PID.TID 0000.0001) > OBWptrFile(26)='OBW_Phy05_76x72x24_baltic_128.bin',
(PID.TID 0000.0001) > OBNptrFile(27)='OBN_Phy06_76x72x24_baltic_128.bin',
(PID.TID 0000.0001) > OBWptrFile(27)='OBW_Phy06_76x72x24_baltic_128.bin',
(PID.TID 0000.0001) > OBNptrFile(28)='OBN_Phy07_76x72x24_baltic_128.bin',
(PID.TID 0000.0001) > OBWptrFile(28)='OBW_Phy07_76x72x24_baltic_128.bin',
(PID.TID 0000.0001) > OBNptrFile(29)='OBN_Phy08_76x72x24_baltic_128.bin',
(PID.TID 0000.0001) > OBWptrFile(29)='OBW_Phy08_76x72x24_baltic_128.bin',
(PID.TID 0000.0001) > OBNptrFile(30)='OBN_Phy09_76x72x24_baltic_128.bin',
(PID.TID 0000.0001) > OBWptrFile(30)='OBW_Phy09_76x72x24_baltic_128.bin',
(PID.TID 0000.0001) > OBNptrFile(31)='OBN_Phy10_76x72x24_baltic_128.bin',
(PID.TID 0000.0001) > OBWptrFile(31)='OBW_Phy10_76x72x24_baltic_128.bin',
(PID.TID 0000.0001) > OBNptrFile(32)='OBN_Phy11_76x72x24_baltic_128.bin',
(PID.TID 0000.0001) > OBWptrFile(32)='OBW_Phy11_76x72x24_baltic_128.bin',
(PID.TID 0000.0001) > OBNptrFile(33)='OBN_Phy12_76x72x24_baltic_128.bin',
(PID.TID 0000.0001) > OBWptrFile(33)='OBW_Phy12_76x72x24_baltic_128.bin',
(PID.TID 0000.0001) > OBNptrFile(34)='OBN_Phy13_76x72x24_baltic_128.bin',
(PID.TID 0000.0001) > OBWptrFile(34)='OBW_Phy13_76x72x24_baltic_128.bin',
(PID.TID 0000.0001) > OBNptrFile(35)='OBN_Phy14_76x72x24_baltic_128.bin',
(PID.TID 0000.0001) > OBWptrFile(35)='OBW_Phy14_76x72x24_baltic_128.bin',
(PID.TID 0000.0001) > OBNptrFile(36)='OBN_Phy15_76x72x24_baltic_128.bin',
(PID.TID 0000.0001) > OBWptrFile(36)='OBW_Phy15_76x72x24_baltic_128.bin',
(PID.TID 0000.0001) > OBNptrFile(37)='OBN_Phy16_76x72x24_baltic_128.bin',
(PID.TID 0000.0001) > OBWptrFile(37)='OBW_Phy16_76x72x24_baltic_128.bin',
(PID.TID 0000.0001) > OBNptrFile(38)='OBN_Phy17_76x72x24_baltic_128.bin',
(PID.TID 0000.0001) > OBWptrFile(38)='OBW_Phy17_76x72x24_baltic_128.bin',
(PID.TID 0000.0001) > OBNptrFile(39)='OBN_Phy18_76x72x24_baltic_128.bin',
(PID.TID 0000.0001) > OBWptrFile(39)='OBW_Phy18_76x72x24_baltic_128.bin',
(PID.TID 0000.0001) > OBNptrFile(40)='OBN_Phy19_76x72x24_baltic_128.bin',
(PID.TID 0000.0001) > OBWptrFile(40)='OBW_Phy19_76x72x24_baltic_128.bin',
(PID.TID 0000.0001) > OBNptrFile(41)='OBN_Phy20_76x72x24_baltic_128.bin',
(PID.TID 0000.0001) > OBWptrFile(41)='OBW_Phy20_76x72x24_baltic_128.bin',
(PID.TID 0000.0001) > OBNptrFile(42)='OBN_Phy21_76x72x24_baltic_128.bin',
(PID.TID 0000.0001) > OBWptrFile(42)='OBW_Phy21_76x72x24_baltic_128.bin',
(PID.TID 0000.0001) > OBNptrFile(43)='OBN_Phy22_76x72x24_baltic_128.bin',
(PID.TID 0000.0001) > OBWptrFile(43)='OBW_Phy22_76x72x24_baltic_128.bin',
(PID.TID 0000.0001) > OBNptrFile(44)='OBN_Phy23_76x72x24_baltic_128.bin',
(PID.TID 0000.0001) > OBWptrFile(44)='OBW_Phy23_76x72x24_baltic_128.bin',
(PID.TID 0000.0001) > OBNptrFile(45)='OBN_Phy24_76x72x24_baltic_128.bin',
(PID.TID 0000.0001) > OBWptrFile(45)='OBW_Phy24_76x72x24_baltic_128.bin',
(PID.TID 0000.0001) > OBNptrFile(46)='OBN_Phy25_76x72x24_baltic_128.bin',
(PID.TID 0000.0001) > OBWptrFile(46)='OBW_Phy25_76x72x24_baltic_128.bin',
(PID.TID 0000.0001) > OBNptrFile(47)='OBN_Phy26_76x72x24_baltic_128.bin',
(PID.TID 0000.0001) > OBWptrFile(47)='OBW_Phy26_76x72x24_baltic_128.bin',
(PID.TID 0000.0001) > OBNptrFile(48)='OBN_Phy27_76x72x24_baltic_128.bin',
(PID.TID 0000.0001) > OBWptrFile(48)='OBW_Phy27_76x72x24_baltic_128.bin',
(PID.TID 0000.0001) > OBNptrFile(49)='OBN_Phy28_76x72x24_baltic_128.bin',
(PID.TID 0000.0001) > OBWptrFile(49)='OBW_Phy28_76x72x24_baltic_128.bin',
(PID.TID 0000.0001) > OBNptrFile(50)='OBN_Phy29_76x72x24_baltic_128.bin',
(PID.TID 0000.0001) > OBWptrFile(50)='OBW_Phy29_76x72x24_baltic_128.bin',
(PID.TID 0000.0001) > OBNptrFile(51)='OBN_Phy30_76x72x24_baltic_128.bin',
(PID.TID 0000.0001) > OBWptrFile(51)='OBW_Phy30_76x72x24_baltic_128.bin',
(PID.TID 0000.0001) > OBNptrFile(52)='OBN_Phy31_76x72x24_baltic_128.bin',
(PID.TID 0000.0001) > OBWptrFile(52)='OBW_Phy31_76x72x24_baltic_128.bin',
(PID.TID 0000.0001) > OBNptrFile(53)='OBN_Phy32_76x72x24_baltic_128.bin',
(PID.TID 0000.0001) > OBWptrFile(53)='OBW_Phy32_76x72x24_baltic_128.bin',
(PID.TID 0000.0001) > OBNptrFile(54)='OBN_Phy33_76x72x24_baltic_128.bin',
(PID.TID 0000.0001) > OBWptrFile(54)='OBW_Phy33_76x72x24_baltic_128.bin',
(PID.TID 0000.0001) > OBNptrFile(55)='OBN_Phy34_76x72x24_baltic_128.bin',
(PID.TID 0000.0001) > OBWptrFile(55)='OBW_Phy34_76x72x24_baltic_128.bin',
(PID.TID 0000.0001) > OBNptrFile(56)='OBN_Phy35_76x72x24_baltic_128.bin',
(PID.TID 0000.0001) > OBWptrFile(56)='OBW_Phy35_76x72x24_baltic_128.bin',
(PID.TID 0000.0001) > OBNptrFile(57)='OBN_Phy36_76x72x24_baltic_128.bin',
(PID.TID 0000.0001) > OBWptrFile(57)='OBW_Phy36_76x72x24_baltic_128.bin',
(PID.TID 0000.0001) > OBNptrFile(58)='OBN_Phy37_76x72x24_baltic_128.bin',
(PID.TID 0000.0001) > OBWptrFile(58)='OBW_Phy37_76x72x24_baltic_128.bin',
(PID.TID 0000.0001) > OBNptrFile(59)='OBN_Phy38_76x72x24_baltic_128.bin',
(PID.TID 0000.0001) > OBWptrFile(59)='OBW_Phy38_76x72x24_baltic_128.bin',
(PID.TID 0000.0001) > OBNptrFile(60)='OBN_Phy39_76x72x24_baltic_128.bin',
(PID.TID 0000.0001) > OBWptrFile(60)='OBW_Phy39_76x72x24_baltic_128.bin',
(PID.TID 0000.0001) > OBNptrFile(61)='OBN_Phy40_76x72x24_baltic_128.bin',
(PID.TID 0000.0001) > OBWptrFile(61)='OBW_Phy40_76x72x24_baltic_128.bin',
(PID.TID 0000.0001) > OBNptrFile(62)='OBN_Phy41_76x72x24_baltic_128.bin',
(PID.TID 0000.0001) > OBWptrFile(62)='OBW_Phy41_76x72x24_baltic_128.bin',
(PID.TID 0000.0001) > OBNptrFile(63)='OBN_Phy42_76x72x24_baltic_128.bin',
(PID.TID 0000.0001) > OBWptrFile(63)='OBW_Phy42_76x72x24_baltic_128.bin',
(PID.TID 0000.0001) > OBNptrFile(64)='OBN_Phy43_76x72x24_baltic_128.bin',
(PID.TID 0000.0001) > OBWptrFile(64)='OBW_Phy43_76x72x24_baltic_128.bin',
(PID.TID 0000.0001) > OBNptrFile(65)='OBN_Phy44_76x72x24_baltic_128.bin',
(PID.TID 0000.0001) > OBWptrFile(65)='OBW_Phy44_76x72x24_baltic_128.bin',
(PID.TID 0000.0001) > OBNptrFile(66)='OBN_Phy45_76x72x24_baltic_128.bin',
(PID.TID 0000.0001) > OBWptrFile(66)='OBW_Phy45_76x72x24_baltic_128.bin',
(PID.TID 0000.0001) > OBNptrFile(67)='OBN_Phy46_76x72x24_baltic_128.bin',
(PID.TID 0000.0001) > OBWptrFile(67)='OBW_Phy46_76x72x24_baltic_128.bin',
(PID.TID 0000.0001) > OBNptrFile(68)='OBN_Phy47_76x72x24_baltic_128.bin',
(PID.TID 0000.0001) > OBWptrFile(68)='OBW_Phy47_76x72x24_baltic_128.bin',
(PID.TID 0000.0001) > OBNptrFile(69)='OBN_Phy48_76x72x24_baltic_128.bin',
(PID.TID 0000.0001) > OBWptrFile(69)='OBW_Phy48_76x72x24_baltic_128.bin',
(PID.TID 0000.0001) > OBNptrFile(70)='OBN_Phy49_76x72x24_baltic_128.bin',
(PID.TID 0000.0001) > OBWptrFile(70)='OBW_Phy49_76x72x24_baltic_128.bin',
(PID.TID 0000.0001) > OBNptrFile(71)='OBN_Phy50_76x72x24_baltic_128.bin',
(PID.TID 0000.0001) > OBWptrFile(71)='OBW_Phy50_76x72x24_baltic_128.bin',
(PID.TID 0000.0001) > OBNptrFile(72)='OBN_Phy51_76x72x24_baltic_128.bin',
(PID.TID 0000.0001) > OBWptrFile(72)='OBW_Phy51_76x72x24_baltic_128.bin',
(PID.TID 0000.0001) > OBNptrFile(73)='OBN_Phy52_76x72x24_baltic_128.bin',
(PID.TID 0000.0001) > OBWptrFile(73)='OBW_Phy52_76x72x24_baltic_128.bin',
(PID.TID 0000.0001) > OBNptrFile(74)='OBN_Phy53_76x72x24_baltic_128.bin',
(PID.TID 0000.0001) > OBWptrFile(74)='OBW_Phy53_76x72x24_baltic_128.bin',
(PID.TID 0000.0001) > OBNptrFile(75)='OBN_Phy54_76x72x24_baltic_128.bin',
(PID.TID 0000.0001) > OBWptrFile(75)='OBW_Phy54_76x72x24_baltic_128.bin',
(PID.TID 0000.0001) > OBNptrFile(76)='OBN_Phy55_76x72x24_baltic_128.bin',
(PID.TID 0000.0001) > OBWptrFile(76)='OBW_Phy55_76x72x24_baltic_128.bin',
(PID.TID 0000.0001) > OBNptrFile(77)='OBN_Phy56_76x72x24_baltic_128.bin',
(PID.TID 0000.0001) > OBWptrFile(77)='OBW_Phy56_76x72x24_baltic_128.bin',
(PID.TID 0000.0001) > OBNptrFile(78)='OBN_Phy57_76x72x24_baltic_128.bin',
(PID.TID 0000.0001) > OBWptrFile(78)='OBW_Phy57_76x72x24_baltic_128.bin',
(PID.TID 0000.0001) > OBNptrFile(79)='OBN_Phy58_76x72x24_baltic_128.bin',
(PID.TID 0000.0001) > OBWptrFile(79)='OBW_Phy58_76x72x24_baltic_128.bin',
(PID.TID 0000.0001) > OBNptrFile(80)='OBN_Phy59_76x72x24_baltic_128.bin',
(PID.TID 0000.0001) > OBWptrFile(80)='OBW_Phy59_76x72x24_baltic_128.bin',
(PID.TID 0000.0001) > OBNptrFile(81)='OBN_Phy60_76x72x24_baltic_128.bin',
(PID.TID 0000.0001) > OBWptrFile(81)='OBW_Phy60_76x72x24_baltic_128.bin',
(PID.TID 0000.0001) > OBNptrFile(82)='OBN_Phy61_76x72x24_baltic_128.bin',
(PID.TID 0000.0001) > OBWptrFile(82)='OBW_Phy61_76x72x24_baltic_128.bin',
(PID.TID 0000.0001) > OBNptrFile(83)='OBN_Phy62_76x72x24_baltic_128.bin',
(PID.TID 0000.0001) > OBWptrFile(83)='OBW_Phy62_76x72x24_baltic_128.bin',
(PID.TID 0000.0001) > OBNptrFile(84)='OBN_Phy63_76x72x24_baltic_128.bin',
(PID.TID 0000.0001) > OBWptrFile(84)='OBW_Phy63_76x72x24_baltic_128.bin',
(PID.TID 0000.0001) > OBNptrFile(85)='OBN_Phy64_76x72x24_baltic_128.bin',
(PID.TID 0000.0001) > OBWptrFile(85)='OBW_Phy64_76x72x24_baltic_128.bin',
(PID.TID 0000.0001) > OBNptrFile(86)='OBN_Phy65_76x72x24_baltic_128.bin',
(PID.TID 0000.0001) > OBWptrFile(86)='OBW_Phy65_76x72x24_baltic_128.bin',
(PID.TID 0000.0001) > OBNptrFile(87)='OBN_Phy66_76x72x24_baltic_128.bin',
(PID.TID 0000.0001) > OBWptrFile(87)='OBW_Phy66_76x72x24_baltic_128.bin',
(PID.TID 0000.0001) > OBNptrFile(88)='OBN_Phy67_76x72x24_baltic_128.bin',
(PID.TID 0000.0001) > OBWptrFile(88)='OBW_Phy67_76x72x24_baltic_128.bin',
(PID.TID 0000.0001) > OBNptrFile(89)='OBN_Phy68_76x72x24_baltic_128.bin',
(PID.TID 0000.0001) > OBWptrFile(89)='OBW_Phy68_76x72x24_baltic_128.bin',
(PID.TID 0000.0001) > OBNptrFile(90)='OBN_Phy69_76x72x24_baltic_128.bin',
(PID.TID 0000.0001) > OBWptrFile(90)='OBW_Phy69_76x72x24_baltic_128.bin',
(PID.TID 0000.0001) > OBNptrFile(91)='OBN_Phy70_76x72x24_baltic_128.bin',
(PID.TID 0000.0001) > OBWptrFile(91)='OBW_Phy70_76x72x24_baltic_128.bin',
(PID.TID 0000.0001) > OBNptrFile(92)='OBN_Phy71_76x72x24_baltic_128.bin',
(PID.TID 0000.0001) > OBWptrFile(92)='OBW_Phy71_76x72x24_baltic_128.bin',
(PID.TID 0000.0001) > OBNptrFile(93)='OBN_Phy72_76x72x24_baltic_128.bin',
(PID.TID 0000.0001) > OBWptrFile(93)='OBW_Phy72_76x72x24_baltic_128.bin',
(PID.TID 0000.0001) > OBNptrFile(94)='OBN_Phy73_76x72x24_baltic_128.bin',
(PID.TID 0000.0001) > OBWptrFile(94)='OBW_Phy73_76x72x24_baltic_128.bin',
(PID.TID 0000.0001) > OBNptrFile(95)='OBN_Phy74_76x72x24_baltic_128.bin',
(PID.TID 0000.0001) > OBWptrFile(95)='OBW_Phy74_76x72x24_baltic_128.bin',
(PID.TID 0000.0001) > OBNptrFile(96)='OBN_Phy75_76x72x24_baltic_128.bin',
(PID.TID 0000.0001) > OBWptrFile(96)='OBW_Phy75_76x72x24_baltic_128.bin',
(PID.TID 0000.0001) > OBNptrFile(97)='OBN_Phy76_76x72x24_baltic_128.bin',
(PID.TID 0000.0001) > OBWptrFile(97)='OBW_Phy76_76x72x24_baltic_128.bin',
(PID.TID 0000.0001) > OBNptrFile(98)='OBN_Phy77_76x72x24_baltic_128.bin',
(PID.TID 0000.0001) > OBWptrFile(98)='OBW_Phy77_76x72x24_baltic_128.bin',
(PID.TID 0000.0001) > OBNptrFile(99)='OBN_Phy78_76x72x24_baltic_128.bin',
(PID.TID 0000.0001) > OBWptrFile(99)='OBW_Phy78_76x72x24_baltic_128.bin',
(PID.TID 0000.0001) >#
(PID.TID 0000.0001) > /
(PID.TID 0000.0001) >
(PID.TID 0000.0001) ># *****************************************
(PID.TID 0000.0001) ># Orlanski Boundary Condition Parameters.
(PID.TID 0000.0001) ># *****************************************
(PID.TID 0000.0001) ># &OBCS_PARM02
(PID.TID 0000.0001) ># cvelTimeScale = 2000.,
(PID.TID 0000.0001) ># /
(PID.TID 0000.0001) >
(PID.TID 0000.0001) ># *****************************************
(PID.TID 0000.0001) ># Sponge Layer Parameters.
(PID.TID 0000.0001) ># *****************************************
(PID.TID 0000.0001) ># &OBCS_PARM03
(PID.TID 0000.0001) ># Urelaxobcsinner=7776000.E0,
(PID.TID 0000.0001) ># Urelaxobcsbound=2592000.E0,
(PID.TID 0000.0001) ># Vrelaxobcsinner=7776000.E0,
(PID.TID 0000.0001) ># Vrelaxobcsbound=2592000.E0,
(PID.TID 0000.0001) ># spongeThickness=10,
(PID.TID 0000.0001) ># /
(PID.TID 0000.0001) 
(PID.TID 0000.0001)  OBCS_READPARMS: finished reading data.obcs
(PID.TID 0000.0001)  OB_indexUnset = /* unset OB index value (i.e. no OB) */
(PID.TID 0000.0001)                       0
(PID.TID 0000.0001)     ;
(PID.TID 0000.0001)  Northern OB global indices : OB_Jnorth =
(PID.TID 0000.0001)    76 @       72                            /* I =  1: 76 */
(PID.TID 0000.0001)  Southern OB global indices : OB_Jsouth =
(PID.TID 0000.0001)    76 @        0                            /* I =  1: 76 */
(PID.TID 0000.0001)  Eastern  OB global indices : OB_Ieast =
(PID.TID 0000.0001)    72 @        0                            /* J =  1: 72 */
(PID.TID 0000.0001)  Western  OB global indices : OB_Iwest =
(PID.TID 0000.0001)    72 @        1                            /* J =  1: 72 */
(PID.TID 0000.0001) 
(PID.TID 0000.0001)  PTRACERS_READPARMS: opening data.ptracers
(PID.TID 0000.0001)  OPEN_COPY_DATA_FILE: opening file data.ptracers
(PID.TID 0000.0001) // =======================================================
(PID.TID 0000.0001) // Parameter file "data.ptracers"
(PID.TID 0000.0001) // =======================================================
(PID.TID 0000.0001) > &PTRACERS_PARM01
(PID.TID 0000.0001) > PTRACERS_numInUse=99,
(PID.TID 0000.0001) ># 366 days == 19930101 060000
(PID.TID 0000.0001) > PTRACERS_Iter0= 26352,
(PID.TID 0000.0001) ># tracer 1 - phosphate
(PID.TID 0000.0001) > PTRACERS_names(1)='PO4',
(PID.TID 0000.0001) > PTRACERS_units(1)='mmol P/m^3',
(PID.TID 0000.0001) > PTRACERS_advScheme(1)=33,
(PID.TID 0000.0001) > PTRACERS_diffKh(1)=0.E3,
(PID.TID 0000.0001) > PTRACERS_diffKr(1)=1.E-6,
(PID.TID 0000.0001) > PTRACERS_useKPP(1)=.TRUE. ,
(PID.TID 0000.0001) ># tracer 2 - nitrate
(PID.TID 0000.0001) > PTRACERS_names(2)='NO3',
(PID.TID 0000.0001) > PTRACERS_units(2)='mmol N/m^3',
(PID.TID 0000.0001) > PTRACERS_advScheme(2)=33,
(PID.TID 0000.0001) > PTRACERS_diffKh(2)=0.E3,
(PID.TID 0000.0001) > PTRACERS_diffKr(2)=1.E-6,
(PID.TID 0000.0001) > PTRACERS_useKPP(2)=.TRUE. ,
(PID.TID 0000.0001) ># tracer 3 - dissolved iron
(PID.TID 0000.0001) > PTRACERS_names(3)='FeT',
(PID.TID 0000.0001) > PTRACERS_units(3)='mmol Fe/m^3',
(PID.TID 0000.0001) > PTRACERS_advScheme(3)=33,
(PID.TID 0000.0001) > PTRACERS_diffKh(3)=0.E3,
(PID.TID 0000.0001) > PTRACERS_diffKr(3)=1.E-6,
(PID.TID 0000.0001) > PTRACERS_useKPP(3)=.TRUE. ,
(PID.TID 0000.0001) ># tracer 4 - silicic acid
(PID.TID 0000.0001) > PTRACERS_names(4)='SiO2',
(PID.TID 0000.0001) > PTRACERS_units(4)='mmol Si/m^3',
(PID.TID 0000.0001) > PTRACERS_advScheme(4)=33,
(PID.TID 0000.0001) > PTRACERS_diffKh(4)=0.E3,
(PID.TID 0000.0001) > PTRACERS_diffKr(4)=1.E-6,
(PID.TID 0000.0001) > PTRACERS_useKPP(4)=.TRUE. ,
(PID.TID 0000.0001) ># tracer 5 - DOP
(PID.TID 0000.0001) > PTRACERS_names(5)='DOP',
(PID.TID 0000.0001) > PTRACERS_units(5)='mmol P/m^3',
(PID.TID 0000.0001) > PTRACERS_advScheme(5)=33,
(PID.TID 0000.0001) > PTRACERS_diffKh(5)=0.E3,
(PID.TID 0000.0001) > PTRACERS_diffKr(5)=1.E-6,
(PID.TID 0000.0001) > PTRACERS_useKPP(5)=.TRUE.  ,
(PID.TID 0000.0001) ># tracer 6 - DON
(PID.TID 0000.0001) > PTRACERS_names(6)='DON',
(PID.TID 0000.0001) > PTRACERS_units(6)='mmol N/m^3',
(PID.TID 0000.0001) > PTRACERS_advScheme(6)=33,
(PID.TID 0000.0001) > PTRACERS_diffKh(6)=0.E3,
(PID.TID 0000.0001) > PTRACERS_diffKr(6)=1.E-6,
(PID.TID 0000.0001) > PTRACERS_useKPP(6)=.TRUE.  ,
(PID.TID 0000.0001) ># tracer 7 - DOFe
(PID.TID 0000.0001) > PTRACERS_names(7)='DOFe',
(PID.TID 0000.0001) > PTRACERS_units(7)='mmol Fe/m^3',
(PID.TID 0000.0001) > PTRACERS_advScheme(7)=33,
(PID.TID 0000.0001) > PTRACERS_diffKh(7)=0.E3,
(PID.TID 0000.0001) > PTRACERS_diffKr(7)=1.E-6,
(PID.TID 0000.0001) > PTRACERS_useKPP(7)=.TRUE.  ,
(PID.TID 0000.0001) ># tracer 8 - ZOO1P
(PID.TID 0000.0001) > PTRACERS_names(8)='ZOO1P',
(PID.TID 0000.0001) > PTRACERS_units(8)='mmol P/m^3',
(PID.TID 0000.0001) > PTRACERS_advScheme(8)=33,
(PID.TID 0000.0001) > PTRACERS_diffKh(8)=0.E3,
(PID.TID 0000.0001) > PTRACERS_diffKr(8)=1.E-6,
(PID.TID 0000.0001) > PTRACERS_useKPP(8)=.TRUE.  ,
(PID.TID 0000.0001) ># tracer 9 - ZOO1N
(PID.TID 0000.0001) > PTRACERS_names(9)='ZOO1N',
(PID.TID 0000.0001) > PTRACERS_units(9)='mmol N/m^3'
(PID.TID 0000.0001) > PTRACERS_advScheme(9)=33,
(PID.TID 0000.0001) > PTRACERS_diffKh(9)=0.E3,
(PID.TID 0000.0001) > PTRACERS_diffKr(9)=1.E-6,
(PID.TID 0000.0001) > PTRACERS_useKPP(9)=.TRUE.  ,
(PID.TID 0000.0001) ># tracer 10 - ZOO1Fe
(PID.TID 0000.0001) > PTRACERS_names(10)='ZOO1Fe',
(PID.TID 0000.0001) > PTRACERS_units(10)='mmol Fe/m^3'
(PID.TID 0000.0001) > PTRACERS_advScheme(10)=33,
(PID.TID 0000.0001) > PTRACERS_diffKh(10)=0.E3,
(PID.TID 0000.0001) > PTRACERS_diffKr(10)=1.E-6,
(PID.TID 0000.0001) > PTRACERS_useKPP(10)=.TRUE.  ,
(PID.TID 0000.0001) ># tracer 11 - ZOO1Si
(PID.TID 0000.0001) > PTRACERS_names(11)='ZOO1Si',
(PID.TID 0000.0001) > PTRACERS_units(11)='mmol Si/m^3'
(PID.TID 0000.0001) > PTRACERS_advScheme(11)=33,
(PID.TID 0000.0001) > PTRACERS_diffKh(11)=0.E3,
(PID.TID 0000.0001) > PTRACERS_diffKr(11)=1.E-6,
(PID.TID 0000.0001) > PTRACERS_useKPP(11)=.TRUE.  ,
(PID.TID 0000.0001) ># tracer 12 - ZOO2P
(PID.TID 0000.0001) > PTRACERS_names(12)='ZOO2P',
(PID.TID 0000.0001) > PTRACERS_units(12)='mmol P/m^3',
(PID.TID 0000.0001) > PTRACERS_advScheme(12)=33,
(PID.TID 0000.0001) > PTRACERS_diffKh(12)=0.E3,
(PID.TID 0000.0001) > PTRACERS_diffKr(12)=1.E-6,
(PID.TID 0000.0001) > PTRACERS_useKPP(12)=.TRUE.  ,
(PID.TID 0000.0001) ># tracer 13 - ZOO2N
(PID.TID 0000.0001) > PTRACERS_names(13)='ZOO2N',
(PID.TID 0000.0001) > PTRACERS_units(13)='mmol N/m^3'
(PID.TID 0000.0001) > PTRACERS_advScheme(13)=33,
(PID.TID 0000.0001) > PTRACERS_diffKh(13)=0.E3,
(PID.TID 0000.0001) > PTRACERS_diffKr(13)=1.E-6,
(PID.TID 0000.0001) > PTRACERS_useKPP(13)=.TRUE.  ,
(PID.TID 0000.0001) ># tracer 14 - ZOO2Fe
(PID.TID 0000.0001) > PTRACERS_names(14)='ZOO2Fe',
(PID.TID 0000.0001) > PTRACERS_units(14)='mmol Fe/m^3'
(PID.TID 0000.0001) > PTRACERS_advScheme(14)=33,
(PID.TID 0000.0001) > PTRACERS_diffKh(14)=0.E3,
(PID.TID 0000.0001) > PTRACERS_diffKr(14)=1.E-6,
(PID.TID 0000.0001) > PTRACERS_useKPP(14)=.TRUE.  ,
(PID.TID 0000.0001) ># tracer 15 - ZOO2Si
(PID.TID 0000.0001) > PTRACERS_names(15)='ZOO2Si',
(PID.TID 0000.0001) > PTRACERS_units(15)='mmol Si/m^3'
(PID.TID 0000.0001) > PTRACERS_advScheme(15)=33,
(PID.TID 0000.0001) > PTRACERS_diffKh(15)=0.E3,
(PID.TID 0000.0001) > PTRACERS_diffKr(15)=1.E-6,
(PID.TID 0000.0001) > PTRACERS_useKPP(15)=.TRUE.  ,
(PID.TID 0000.0001) ># tracer 16 - POP
(PID.TID 0000.0001) > PTRACERS_names(16)='POP',
(PID.TID 0000.0001) > PTRACERS_units(16)='mmol P/m^3',
(PID.TID 0000.0001) > PTRACERS_advScheme(16)=33,
(PID.TID 0000.0001) > PTRACERS_diffKh(16)=0.E3,
(PID.TID 0000.0001) > PTRACERS_diffKr(16)=1.E-6,
(PID.TID 0000.0001) > PTRACERS_useKPP(16)=.TRUE.  ,
(PID.TID 0000.0001) ># tracer 17 - PON
(PID.TID 0000.0001) > PTRACERS_names(17)='PON',
(PID.TID 0000.0001) > PTRACERS_units(17)='mmol N/m^3',
(PID.TID 0000.0001) > PTRACERS_advScheme(17)=33,
(PID.TID 0000.0001) > PTRACERS_diffKh(17)=0.E3,
(PID.TID 0000.0001) > PTRACERS_diffKr(17)=1.E-6,
(PID.TID 0000.0001) > PTRACERS_useKPP(17)=.TRUE.  ,
(PID.TID 0000.0001) ># tracer 18 - POFe
(PID.TID 0000.0001) > PTRACERS_names(18)='POFe',
(PID.TID 0000.0001) > PTRACERS_units(18)='mmol Fe/m^3'
(PID.TID 0000.0001) > PTRACERS_advScheme(18)=33,
(PID.TID 0000.0001) > PTRACERS_diffKh(18)=0.E3,
(PID.TID 0000.0001) > PTRACERS_diffKr(18)=1.E-6,
(PID.TID 0000.0001) > PTRACERS_useKPP(18)=.TRUE.  ,
(PID.TID 0000.0001) ># tracer 19 - POSi
(PID.TID 0000.0001) > PTRACERS_names(19)='POSi',
(PID.TID 0000.0001) > PTRACERS_units(19)='mmol Si/m^3'
(PID.TID 0000.0001) > PTRACERS_advScheme(19)=33,
(PID.TID 0000.0001) > PTRACERS_diffKh(19)=0.E3,
(PID.TID 0000.0001) > PTRACERS_diffKr(19)=1.E-6,
(PID.TID 0000.0001) > PTRACERS_useKPP(19)=.TRUE.  ,
(PID.TID 0000.0001) ># tracer 20 - NH4
(PID.TID 0000.0001) > PTRACERS_names(20)='NH4',
(PID.TID 0000.0001) > PTRACERS_units(20)='mmol N/m^3'
(PID.TID 0000.0001) > PTRACERS_advScheme(20)=33,
(PID.TID 0000.0001) > PTRACERS_diffKh(20)=0.E3,
(PID.TID 0000.0001) > PTRACERS_diffKr(20)=1.E-6,
(PID.TID 0000.0001) > PTRACERS_useKPP(20)=.TRUE.  ,
(PID.TID 0000.0001) ># tracer 21 - NO2
(PID.TID 0000.0001) > PTRACERS_names(21)='NO2',
(PID.TID 0000.0001) > PTRACERS_units(21)='mmol N/m^3'
(PID.TID 0000.0001) > PTRACERS_advScheme(21)=33,
(PID.TID 0000.0001) > PTRACERS_diffKh(21)=0.E3,
(PID.TID 0000.0001) > PTRACERS_diffKr(21)=1.E-6,
(PID.TID 0000.0001) > PTRACERS_useKPP(21)=.TRUE.  ,
(PID.TID 0000.0001) ># tracer 22 - PHYT01
(PID.TID 0000.0001) > PTRACERS_names(22)='Phy01',
(PID.TID 0000.0001) > PTRACERS_units(22)='mmol P/m^3'
(PID.TID 0000.0001) > PTRACERS_advScheme(22)=33,
(PID.TID 0000.0001) > PTRACERS_diffKh(22)=0.E3,
(PID.TID 0000.0001) > PTRACERS_diffKr(22)=1.E-6,
(PID.TID 0000.0001) > PTRACERS_useKPP(22)=.TRUE.  ,
(PID.TID 0000.0001) ># tracer 23 - PHYT02
(PID.TID 0000.0001) > PTRACERS_names(23)='Phy02',
(PID.TID 0000.0001) > PTRACERS_units(23)='mmol P/m^3'
(PID.TID 0000.0001) > PTRACERS_advScheme(23)=33,
(PID.TID 0000.0001) > PTRACERS_diffKh(23)=0.E3,
(PID.TID 0000.0001) > PTRACERS_diffKr(23)=1.E-6,
(PID.TID 0000.0001) > PTRACERS_useKPP(23)=.TRUE.  ,
(PID.TID 0000.0001) ># tracer 24 - PHYT03
(PID.TID 0000.0001) > PTRACERS_names(24)='Phy03',
(PID.TID 0000.0001) > PTRACERS_units(24)='mmol P/m^3'
(PID.TID 0000.0001) > PTRACERS_advScheme(24)=33,
(PID.TID 0000.0001) > PTRACERS_diffKh(24)=0.E3,
(PID.TID 0000.0001) > PTRACERS_diffKr(24)=1.E-6,
(PID.TID 0000.0001) > PTRACERS_useKPP(24)=.TRUE.  ,
(PID.TID 0000.0001) ># tracer 25 - PHYT04
(PID.TID 0000.0001) > PTRACERS_names(25)='Phy04',
(PID.TID 0000.0001) > PTRACERS_units(25)='mmol P/m^3'
(PID.TID 0000.0001) > PTRACERS_advScheme(25)=33,
(PID.TID 0000.0001) > PTRACERS_diffKh(25)=0.E3,
(PID.TID 0000.0001) > PTRACERS_diffKr(25)=1.E-6,
(PID.TID 0000.0001) > PTRACERS_useKPP(25)=.TRUE.  ,
(PID.TID 0000.0001) ># tracer 26 - PHYT05
(PID.TID 0000.0001) > PTRACERS_names(26)='Phy05',
(PID.TID 0000.0001) > PTRACERS_units(26)='mmol P/m^3'
(PID.TID 0000.0001) > PTRACERS_advScheme(26)=33,
(PID.TID 0000.0001) > PTRACERS_diffKh(26)=0.E3,
(PID.TID 0000.0001) > PTRACERS_diffKr(26)=1.E-6,
(PID.TID 0000.0001) > PTRACERS_useKPP(26)=.TRUE.  ,
(PID.TID 0000.0001) ># tracer 27 - PHYT06
(PID.TID 0000.0001) > PTRACERS_names(27)='Phy06',
(PID.TID 0000.0001) > PTRACERS_units(27)='mmol P/m^3'
(PID.TID 0000.0001) > PTRACERS_advScheme(27)=33,
(PID.TID 0000.0001) > PTRACERS_diffKh(27)=0.E3,
(PID.TID 0000.0001) > PTRACERS_diffKr(27)=1.E-6,
(PID.TID 0000.0001) > PTRACERS_useKPP(27)=.TRUE.  ,
(PID.TID 0000.0001) ># tracer 28 - PHYT07
(PID.TID 0000.0001) > PTRACERS_names(28)='Phy07',
(PID.TID 0000.0001) > PTRACERS_units(28)='mmol P/m^3'
(PID.TID 0000.0001) > PTRACERS_advScheme(28)=33,
(PID.TID 0000.0001) > PTRACERS_diffKh(28)=0.E3,
(PID.TID 0000.0001) > PTRACERS_diffKr(28)=1.E-6,
(PID.TID 0000.0001) > PTRACERS_useKPP(28)=.TRUE.  ,
(PID.TID 0000.0001) ># tracer 29 - PHYT08
(PID.TID 0000.0001) > PTRACERS_names(29)='Phy08',
(PID.TID 0000.0001) > PTRACERS_units(29)='mmol P/m^3'
(PID.TID 0000.0001) > PTRACERS_advScheme(29)=33,
(PID.TID 0000.0001) > PTRACERS_diffKh(29)=0.E3,
(PID.TID 0000.0001) > PTRACERS_diffKr(29)=1.E-6,
(PID.TID 0000.0001) > PTRACERS_useKPP(29)=.TRUE.  ,
(PID.TID 0000.0001) ># tracer 30 - PHYT09
(PID.TID 0000.0001) > PTRACERS_names(30)='Phy09',
(PID.TID 0000.0001) > PTRACERS_units(30)='mmol P/m^3'
(PID.TID 0000.0001) > PTRACERS_advScheme(30)=33,
(PID.TID 0000.0001) > PTRACERS_diffKh(30)=0.E3,
(PID.TID 0000.0001) > PTRACERS_diffKr(30)=1.E-6,
(PID.TID 0000.0001) > PTRACERS_useKPP(30)=.TRUE.  ,
(PID.TID 0000.0001) ># tracer 31 - PHYT10
(PID.TID 0000.0001) > PTRACERS_names(31)='Phy10',
(PID.TID 0000.0001) > PTRACERS_units(31)='mmol P/m^3'
(PID.TID 0000.0001) > PTRACERS_advScheme(31)=33,
(PID.TID 0000.0001) > PTRACERS_diffKh(31)=0.E3,
(PID.TID 0000.0001) > PTRACERS_diffKr(31)=1.E-6,
(PID.TID 0000.0001) > PTRACERS_useKPP(31)=.TRUE.  ,
(PID.TID 0000.0001) ># tracer 32 - PHYT11
(PID.TID 0000.0001) > PTRACERS_names(32)='Phy11',
(PID.TID 0000.0001) > PTRACERS_units(32)='mmol P/m^3'
(PID.TID 0000.0001) > PTRACERS_advScheme(32)=33,
(PID.TID 0000.0001) > PTRACERS_diffKh(32)=0.E3,
(PID.TID 0000.0001) > PTRACERS_diffKr(32)=1.E-6,
(PID.TID 0000.0001) > PTRACERS_useKPP(32)=.TRUE.  ,
(PID.TID 0000.0001) ># tracer 33 - PHYT12
(PID.TID 0000.0001) > PTRACERS_names(33)='Phy12',
(PID.TID 0000.0001) > PTRACERS_units(33)='mmol P/m^3'
(PID.TID 0000.0001) > PTRACERS_advScheme(33)=33,
(PID.TID 0000.0001) > PTRACERS_diffKh(33)=0.E3,
(PID.TID 0000.0001) > PTRACERS_diffKr(33)=1.E-6,
(PID.TID 0000.0001) > PTRACERS_useKPP(33)=.TRUE.  ,
(PID.TID 0000.0001) ># tracer 34 - PHYT13
(PID.TID 0000.0001) > PTRACERS_names(34)='Phy13',
(PID.TID 0000.0001) > PTRACERS_units(34)='mmol P/m^3'
(PID.TID 0000.0001) > PTRACERS_advScheme(34)=33,
(PID.TID 0000.0001) > PTRACERS_diffKh(34)=0.E3,
(PID.TID 0000.0001) > PTRACERS_diffKr(34)=1.E-6,
(PID.TID 0000.0001) > PTRACERS_useKPP(34)=.TRUE.  ,
(PID.TID 0000.0001) ># tracer 35 - PHYT14
(PID.TID 0000.0001) > PTRACERS_names(35)='Phy14',
(PID.TID 0000.0001) > PTRACERS_units(35)='mmol P/m^3'
(PID.TID 0000.0001) > PTRACERS_advScheme(35)=33,
(PID.TID 0000.0001) > PTRACERS_diffKh(35)=0.E3,
(PID.TID 0000.0001) > PTRACERS_diffKr(35)=1.E-6,
(PID.TID 0000.0001) > PTRACERS_useKPP(35)=.TRUE.  ,
(PID.TID 0000.0001) ># tracer 36 - PHYT15
(PID.TID 0000.0001) > PTRACERS_names(36)='Phy15',
(PID.TID 0000.0001) > PTRACERS_units(36)='mmol P/m^3'
(PID.TID 0000.0001) > PTRACERS_advScheme(36)=33,
(PID.TID 0000.0001) > PTRACERS_diffKh(36)=0.E3,
(PID.TID 0000.0001) > PTRACERS_diffKr(36)=1.E-6,
(PID.TID 0000.0001) > PTRACERS_useKPP(36)=.TRUE.  ,
(PID.TID 0000.0001) ># tracer 37 - PHYT16
(PID.TID 0000.0001) > PTRACERS_names(37)='Phy16',
(PID.TID 0000.0001) > PTRACERS_units(37)='mmol P/m^3'
(PID.TID 0000.0001) > PTRACERS_advScheme(37)=33,
(PID.TID 0000.0001) > PTRACERS_diffKh(37)=0.E3,
(PID.TID 0000.0001) > PTRACERS_diffKr(37)=1.E-6,
(PID.TID 0000.0001) > PTRACERS_useKPP(37)=.TRUE.  ,
(PID.TID 0000.0001) ># tracer 38 - PHYT17
(PID.TID 0000.0001) > PTRACERS_names(38)='Phy17',
(PID.TID 0000.0001) > PTRACERS_units(38)='mmol P/m^3'
(PID.TID 0000.0001) > PTRACERS_advScheme(38)=33,
(PID.TID 0000.0001) > PTRACERS_diffKh(38)=0.E3,
(PID.TID 0000.0001) > PTRACERS_diffKr(38)=1.E-6,
(PID.TID 0000.0001) > PTRACERS_useKPP(38)=.TRUE.  ,
(PID.TID 0000.0001) ># tracer 39 - PHYT18
(PID.TID 0000.0001) > PTRACERS_names(39)='Phy18',
(PID.TID 0000.0001) > PTRACERS_units(39)='mmol P/m^3'
(PID.TID 0000.0001) > PTRACERS_advScheme(39)=33,
(PID.TID 0000.0001) > PTRACERS_diffKh(39)=0.E3,
(PID.TID 0000.0001) > PTRACERS_diffKr(39)=1.E-6,
(PID.TID 0000.0001) > PTRACERS_useKPP(39)=.TRUE.  ,
(PID.TID 0000.0001) ># tracer 40 - PHYT19
(PID.TID 0000.0001) > PTRACERS_names(40)='Phy19',
(PID.TID 0000.0001) > PTRACERS_units(40)='mmol P/m^3'
(PID.TID 0000.0001) > PTRACERS_advScheme(40)=33,
(PID.TID 0000.0001) > PTRACERS_diffKh(40)=0.E3,
(PID.TID 0000.0001) > PTRACERS_diffKr(40)=1.E-6,
(PID.TID 0000.0001) > PTRACERS_useKPP(40)=.TRUE.  ,
(PID.TID 0000.0001) ># tracer 41 - PHYT20
(PID.TID 0000.0001) > PTRACERS_names(41)='Phy20',
(PID.TID 0000.0001) > PTRACERS_units(41)='mmol P/m^3'
(PID.TID 0000.0001) > PTRACERS_advScheme(41)=33,
(PID.TID 0000.0001) > PTRACERS_diffKh(41)=0.E3,
(PID.TID 0000.0001) > PTRACERS_diffKr(41)=1.E-6,
(PID.TID 0000.0001) > PTRACERS_useKPP(41)=.TRUE.  ,
(PID.TID 0000.0001) ># tracer 42 - PHYT21
(PID.TID 0000.0001) > PTRACERS_names(42)='Phy21',
(PID.TID 0000.0001) > PTRACERS_units(42)='mmol P/m^3'
(PID.TID 0000.0001) > PTRACERS_advScheme(42)=33,
(PID.TID 0000.0001) > PTRACERS_diffKh(42)=0.E3,
(PID.TID 0000.0001) > PTRACERS_diffKr(42)=1.E-6,
(PID.TID 0000.0001) > PTRACERS_useKPP(42)=.TRUE.  ,
(PID.TID 0000.0001) ># tracer 43 - PHYT22
(PID.TID 0000.0001) > PTRACERS_names(43)='Phy22',
(PID.TID 0000.0001) > PTRACERS_units(43)='mmol P/m^3'
(PID.TID 0000.0001) > PTRACERS_advScheme(43)=33,
(PID.TID 0000.0001) > PTRACERS_diffKh(43)=0.E3,
(PID.TID 0000.0001) > PTRACERS_diffKr(43)=1.E-6,
(PID.TID 0000.0001) > PTRACERS_useKPP(43)=.TRUE.  ,
(PID.TID 0000.0001) ># tracer 44 - PHYT23
(PID.TID 0000.0001) > PTRACERS_names(44)='Phy23',
(PID.TID 0000.0001) > PTRACERS_units(44)='mmol P/m^3'
(PID.TID 0000.0001) > PTRACERS_advScheme(44)=33,
(PID.TID 0000.0001) > PTRACERS_diffKh(44)=0.E3,
(PID.TID 0000.0001) > PTRACERS_diffKr(44)=1.E-6,
(PID.TID 0000.0001) > PTRACERS_useKPP(44)=.TRUE.  ,
(PID.TID 0000.0001) ># tracer 45 - PHYT24
(PID.TID 0000.0001) > PTRACERS_names(45)='Phy24',
(PID.TID 0000.0001) > PTRACERS_units(45)='mmol P/m^3'
(PID.TID 0000.0001) > PTRACERS_advScheme(45)=33,
(PID.TID 0000.0001) > PTRACERS_diffKh(45)=0.E3,
(PID.TID 0000.0001) > PTRACERS_diffKr(45)=1.E-6,
(PID.TID 0000.0001) > PTRACERS_useKPP(45)=.TRUE.  ,
(PID.TID 0000.0001) ># tracer 46 - PHYT25
(PID.TID 0000.0001) > PTRACERS_names(46)='Phy25',
(PID.TID 0000.0001) > PTRACERS_units(46)='mmol P/m^3'
(PID.TID 0000.0001) > PTRACERS_advScheme(46)=33,
(PID.TID 0000.0001) > PTRACERS_diffKh(46)=0.E3,
(PID.TID 0000.0001) > PTRACERS_diffKr(46)=1.E-6,
(PID.TID 0000.0001) > PTRACERS_useKPP(46)=.TRUE.  ,
(PID.TID 0000.0001) ># tracer 47 - PHYT26
(PID.TID 0000.0001) > PTRACERS_names(47)='Phy26',
(PID.TID 0000.0001) > PTRACERS_units(47)='mmol P/m^3'
(PID.TID 0000.0001) > PTRACERS_advScheme(47)=33,
(PID.TID 0000.0001) > PTRACERS_diffKh(47)=0.E3,
(PID.TID 0000.0001) > PTRACERS_diffKr(47)=1.E-6,
(PID.TID 0000.0001) > PTRACERS_useKPP(47)=.TRUE.  ,
(PID.TID 0000.0001) ># tracer 48 - PHYT27
(PID.TID 0000.0001) > PTRACERS_names(48)='Phy27',
(PID.TID 0000.0001) > PTRACERS_units(48)='mmol P/m^3'
(PID.TID 0000.0001) > PTRACERS_advScheme(48)=33,
(PID.TID 0000.0001) > PTRACERS_diffKh(48)=0.E3,
(PID.TID 0000.0001) > PTRACERS_diffKr(48)=1.E-6,
(PID.TID 0000.0001) > PTRACERS_useKPP(48)=.TRUE.  ,
(PID.TID 0000.0001) ># tracer 49 - PHYT28
(PID.TID 0000.0001) > PTRACERS_names(49)='Phy28',
(PID.TID 0000.0001) > PTRACERS_units(49)='mmol P/m^3'
(PID.TID 0000.0001) > PTRACERS_advScheme(49)=33,
(PID.TID 0000.0001) > PTRACERS_diffKh(49)=0.E3,
(PID.TID 0000.0001) > PTRACERS_diffKr(49)=1.E-6,
(PID.TID 0000.0001) > PTRACERS_useKPP(49)=.TRUE.  ,
(PID.TID 0000.0001) ># tracer 50 - PHYT29
(PID.TID 0000.0001) > PTRACERS_names(50)='Phy29',
(PID.TID 0000.0001) > PTRACERS_units(50)='mmol P/m^3'
(PID.TID 0000.0001) > PTRACERS_advScheme(50)=33,
(PID.TID 0000.0001) > PTRACERS_diffKh(50)=0.E3,
(PID.TID 0000.0001) > PTRACERS_diffKr(50)=1.E-6,
(PID.TID 0000.0001) > PTRACERS_useKPP(50)=.TRUE.  ,
(PID.TID 0000.0001) ># tracer 51 - PHY30
(PID.TID 0000.0001) > PTRACERS_names(51)='Phy30',
(PID.TID 0000.0001) > PTRACERS_units(51)='mmol P/m^3'
(PID.TID 0000.0001) > PTRACERS_advScheme(51)=33,
(PID.TID 0000.0001) > PTRACERS_diffKh(51)=0.E3,
(PID.TID 0000.0001) > PTRACERS_diffKr(51)=1.E-6,
(PID.TID 0000.0001) > PTRACERS_useKPP(51)=.TRUE.  ,
(PID.TID 0000.0001) ># tracer 52 - PHY31
(PID.TID 0000.0001) > PTRACERS_names(52)='Phy31',
(PID.TID 0000.0001) > PTRACERS_units(52)='mmol P/m^3'
(PID.TID 0000.0001) > PTRACERS_advScheme(52)=33,
(PID.TID 0000.0001) > PTRACERS_diffKh(52)=0.E3,
(PID.TID 0000.0001) > PTRACERS_diffKr(52)=1.E-6,
(PID.TID 0000.0001) > PTRACERS_useKPP(52)=.TRUE.  ,
(PID.TID 0000.0001) ># tracer 53 - PHY32
(PID.TID 0000.0001) > PTRACERS_names(53)='Phy32',
(PID.TID 0000.0001) > PTRACERS_units(53)='mmol P/m^3'
(PID.TID 0000.0001) > PTRACERS_advScheme(53)=33,
(PID.TID 0000.0001) > PTRACERS_diffKh(53)=0.E3,
(PID.TID 0000.0001) > PTRACERS_diffKr(53)=1.E-6,
(PID.TID 0000.0001) > PTRACERS_useKPP(53)=.TRUE.  ,
(PID.TID 0000.0001) ># tracer 54 - PHY33
(PID.TID 0000.0001) > PTRACERS_names(54)='Phy33',
(PID.TID 0000.0001) > PTRACERS_units(54)='mmol P/m^3'
(PID.TID 0000.0001) > PTRACERS_advScheme(54)=33,
(PID.TID 0000.0001) > PTRACERS_diffKh(54)=0.E3,
(PID.TID 0000.0001) > PTRACERS_diffKr(54)=1.E-6,
(PID.TID 0000.0001) > PTRACERS_useKPP(54)=.TRUE.  ,
(PID.TID 0000.0001) ># tracer 55 - PHY34
(PID.TID 0000.0001) > PTRACERS_names(55)='Phy34',
(PID.TID 0000.0001) > PTRACERS_units(55)='mmol P/m^3'
(PID.TID 0000.0001) > PTRACERS_advScheme(55)=33,
(PID.TID 0000.0001) > PTRACERS_diffKh(55)=0.E3,
(PID.TID 0000.0001) > PTRACERS_diffKr(55)=1.E-6,
(PID.TID 0000.0001) > PTRACERS_useKPP(55)=.TRUE.  ,
(PID.TID 0000.0001) ># tracer 56 - PHY35
(PID.TID 0000.0001) > PTRACERS_names(56)='Phy35',
(PID.TID 0000.0001) > PTRACERS_units(56)='mmol P/m^3'
(PID.TID 0000.0001) > PTRACERS_advScheme(56)=33,
(PID.TID 0000.0001) > PTRACERS_diffKh(56)=0.E3,
(PID.TID 0000.0001) > PTRACERS_diffKr(56)=1.E-6,
(PID.TID 0000.0001) > PTRACERS_useKPP(56)=.TRUE.  ,
(PID.TID 0000.0001) ># tracer 57 - PHY36
(PID.TID 0000.0001) > PTRACERS_names(57)='Phy36',
(PID.TID 0000.0001) > PTRACERS_units(57)='mmol P/m^3'
(PID.TID 0000.0001) > PTRACERS_advScheme(57)=33,
(PID.TID 0000.0001) > PTRACERS_diffKh(57)=0.E3,
(PID.TID 0000.0001) > PTRACERS_diffKr(57)=1.E-6,
(PID.TID 0000.0001) > PTRACERS_useKPP(57)=.TRUE.  ,
(PID.TID 0000.0001) ># tracer 58 - PHY37
(PID.TID 0000.0001) > PTRACERS_names(58)='Phy37',
(PID.TID 0000.0001) > PTRACERS_units(58)='mmol P/m^3'
(PID.TID 0000.0001) > PTRACERS_advScheme(58)=33,
(PID.TID 0000.0001) > PTRACERS_diffKh(58)=0.E3,
(PID.TID 0000.0001) > PTRACERS_diffKr(58)=1.E-6,
(PID.TID 0000.0001) > PTRACERS_useKPP(58)=.TRUE.  ,
(PID.TID 0000.0001) ># tracer 59 - PHY38
(PID.TID 0000.0001) > PTRACERS_names(59)='Phy38',
(PID.TID 0000.0001) > PTRACERS_units(59)='mmol P/m^3'
(PID.TID 0000.0001) > PTRACERS_advScheme(59)=33,
(PID.TID 0000.0001) > PTRACERS_diffKh(59)=0.E3,
(PID.TID 0000.0001) > PTRACERS_diffKr(59)=1.E-6,
(PID.TID 0000.0001) > PTRACERS_useKPP(59)=.TRUE.  ,
(PID.TID 0000.0001) ># tracer 60 - PHY39
(PID.TID 0000.0001) > PTRACERS_names(60)='Phy39',
(PID.TID 0000.0001) > PTRACERS_units(60)='mmol P/m^3'
(PID.TID 0000.0001) > PTRACERS_advScheme(60)=33,
(PID.TID 0000.0001) > PTRACERS_diffKh(60)=0.E3,
(PID.TID 0000.0001) > PTRACERS_diffKr(60)=1.E-6,
(PID.TID 0000.0001) > PTRACERS_useKPP(60)=.TRUE.  ,
(PID.TID 0000.0001) ># tracer 61 - PHY40
(PID.TID 0000.0001) > PTRACERS_names(61)='Phy40',
(PID.TID 0000.0001) > PTRACERS_units(61)='mmol P/m^3'
(PID.TID 0000.0001) > PTRACERS_advScheme(61)=33,
(PID.TID 0000.0001) > PTRACERS_diffKh(61)=0.E3,
(PID.TID 0000.0001) > PTRACERS_diffKr(61)=1.E-6,
(PID.TID 0000.0001) > PTRACERS_useKPP(61)=.TRUE.  ,
(PID.TID 0000.0001) ># tracer 62 - PHY41
(PID.TID 0000.0001) > PTRACERS_names(62)='Phy41',
(PID.TID 0000.0001) > PTRACERS_units(62)='mmol P/m^3'
(PID.TID 0000.0001) > PTRACERS_advScheme(62)=33,
(PID.TID 0000.0001) > PTRACERS_diffKh(62)=0.E3,
(PID.TID 0000.0001) > PTRACERS_diffKr(62)=1.E-6,
(PID.TID 0000.0001) > PTRACERS_useKPP(62)=.TRUE.  ,
(PID.TID 0000.0001) ># tracer 63 - PHY42
(PID.TID 0000.0001) > PTRACERS_names(63)='Phy42',
(PID.TID 0000.0001) > PTRACERS_units(63)='mmol P/m^3'
(PID.TID 0000.0001) > PTRACERS_advScheme(63)=33,
(PID.TID 0000.0001) > PTRACERS_diffKh(63)=0.E3,
(PID.TID 0000.0001) > PTRACERS_diffKr(63)=1.E-6,
(PID.TID 0000.0001) > PTRACERS_useKPP(63)=.TRUE.  ,
(PID.TID 0000.0001) ># tracer 64 - PHY43
(PID.TID 0000.0001) > PTRACERS_names(64)='Phy43',
(PID.TID 0000.0001) > PTRACERS_units(64)='mmol P/m^3'
(PID.TID 0000.0001) > PTRACERS_advScheme(64)=33,
(PID.TID 0000.0001) > PTRACERS_diffKh(64)=0.E3,
(PID.TID 0000.0001) > PTRACERS_diffKr(64)=1.E-6,
(PID.TID 0000.0001) > PTRACERS_useKPP(64)=.TRUE.  ,
(PID.TID 0000.0001) ># tracer 65 - PHY44
(PID.TID 0000.0001) > PTRACERS_names(65)='Phy44',
(PID.TID 0000.0001) > PTRACERS_units(65)='mmol P/m^3'
(PID.TID 0000.0001) > PTRACERS_advScheme(65)=33,
(PID.TID 0000.0001) > PTRACERS_diffKh(65)=0.E3,
(PID.TID 0000.0001) > PTRACERS_diffKr(65)=1.E-6,
(PID.TID 0000.0001) > PTRACERS_useKPP(65)=.TRUE.  ,
(PID.TID 0000.0001) ># tracer 66 - PHY45
(PID.TID 0000.0001) > PTRACERS_names(66)='Phy45',
(PID.TID 0000.0001) > PTRACERS_units(66)='mmol P/m^3'
(PID.TID 0000.0001) > PTRACERS_advScheme(66)=33,
(PID.TID 0000.0001) > PTRACERS_diffKh(66)=0.E3,
(PID.TID 0000.0001) > PTRACERS_diffKr(66)=1.E-6,
(PID.TID 0000.0001) > PTRACERS_useKPP(66)=.TRUE.  ,
(PID.TID 0000.0001) ># tracer 67 - PHY46
(PID.TID 0000.0001) > PTRACERS_names(67)='Phy46',
(PID.TID 0000.0001) > PTRACERS_units(67)='mmol P/m^3'
(PID.TID 0000.0001) > PTRACERS_advScheme(67)=33,
(PID.TID 0000.0001) > PTRACERS_diffKh(67)=0.E3,
(PID.TID 0000.0001) > PTRACERS_diffKr(67)=1.E-6,
(PID.TID 0000.0001) > PTRACERS_useKPP(67)=.TRUE.  ,
(PID.TID 0000.0001) ># tracer 68 - PHY47
(PID.TID 0000.0001) > PTRACERS_names(68)='Phy47',
(PID.TID 0000.0001) > PTRACERS_units(68)='mmol P/m^3'
(PID.TID 0000.0001) > PTRACERS_advScheme(68)=33,
(PID.TID 0000.0001) > PTRACERS_diffKh(68)=0.E3,
(PID.TID 0000.0001) > PTRACERS_diffKr(68)=1.E-6,
(PID.TID 0000.0001) > PTRACERS_useKPP(68)=.TRUE.  ,
(PID.TID 0000.0001) ># tracer 69 - PHY48
(PID.TID 0000.0001) > PTRACERS_names(69)='Phy48',
(PID.TID 0000.0001) > PTRACERS_units(69)='mmol P/m^3'
(PID.TID 0000.0001) > PTRACERS_advScheme(69)=33,
(PID.TID 0000.0001) > PTRACERS_diffKh(69)=0.E3,
(PID.TID 0000.0001) > PTRACERS_diffKr(69)=1.E-6,
(PID.TID 0000.0001) > PTRACERS_useKPP(69)=.TRUE.  ,
(PID.TID 0000.0001) ># tracer 70 - PHY49
(PID.TID 0000.0001) > PTRACERS_names(70)='Phy49',
(PID.TID 0000.0001) > PTRACERS_units(70)='mmol P/m^3'
(PID.TID 0000.0001) > PTRACERS_advScheme(70)=33,
(PID.TID 0000.0001) > PTRACERS_diffKh(70)=0.E3,
(PID.TID 0000.0001) > PTRACERS_diffKr(70)=1.E-6,
(PID.TID 0000.0001) > PTRACERS_useKPP(70)=.TRUE.  ,
(PID.TID 0000.0001) ># tracer 71 - PHY50
(PID.TID 0000.0001) > PTRACERS_names(71)='Phy50',
(PID.TID 0000.0001) > PTRACERS_units(71)='mmol P/m^3'
(PID.TID 0000.0001) > PTRACERS_advScheme(71)=33,
(PID.TID 0000.0001) > PTRACERS_diffKh(71)=0.E3,
(PID.TID 0000.0001) > PTRACERS_diffKr(71)=1.E-6,
(PID.TID 0000.0001) > PTRACERS_useKPP(71)=.TRUE.  ,
(PID.TID 0000.0001) ># tracer 72 - PHY51
(PID.TID 0000.0001) > PTRACERS_names(72)='Phy51',
(PID.TID 0000.0001) > PTRACERS_units(72)='mmol P/m^3'
(PID.TID 0000.0001) > PTRACERS_advScheme(72)=33,
(PID.TID 0000.0001) > PTRACERS_diffKh(72)=0.E3,
(PID.TID 0000.0001) > PTRACERS_diffKr(72)=1.E-6,
(PID.TID 0000.0001) > PTRACERS_useKPP(72)=.TRUE.  ,
(PID.TID 0000.0001) ># tracer 73 - PHY52
(PID.TID 0000.0001) > PTRACERS_names(73)='Phy52',
(PID.TID 0000.0001) > PTRACERS_units(73)='mmol P/m^3'
(PID.TID 0000.0001) > PTRACERS_advScheme(73)=33,
(PID.TID 0000.0001) > PTRACERS_diffKh(73)=0.E3,
(PID.TID 0000.0001) > PTRACERS_diffKr(73)=1.E-6,
(PID.TID 0000.0001) > PTRACERS_useKPP(73)=.TRUE.  ,
(PID.TID 0000.0001) ># tracer 74 - PHY53
(PID.TID 0000.0001) > PTRACERS_names(74)='Phy53',
(PID.TID 0000.0001) > PTRACERS_units(74)='mmol P/m^3'
(PID.TID 0000.0001) > PTRACERS_advScheme(74)=33,
(PID.TID 0000.0001) > PTRACERS_diffKh(74)=0.E3,
(PID.TID 0000.0001) > PTRACERS_diffKr(74)=1.E-6,
(PID.TID 0000.0001) > PTRACERS_useKPP(74)=.TRUE.  ,
(PID.TID 0000.0001) ># tracer 75 - PHY54
(PID.TID 0000.0001) > PTRACERS_names(75)='Phy54',
(PID.TID 0000.0001) > PTRACERS_units(75)='mmol P/m^3'
(PID.TID 0000.0001) > PTRACERS_advScheme(75)=33,
(PID.TID 0000.0001) > PTRACERS_diffKh(75)=0.E3,
(PID.TID 0000.0001) > PTRACERS_diffKr(75)=1.E-6,
(PID.TID 0000.0001) > PTRACERS_useKPP(75)=.TRUE.  ,
(PID.TID 0000.0001) ># tracer 76 - PHY55
(PID.TID 0000.0001) > PTRACERS_names(76)='Phy55',
(PID.TID 0000.0001) > PTRACERS_units(76)='mmol P/m^3'
(PID.TID 0000.0001) > PTRACERS_advScheme(76)=33,
(PID.TID 0000.0001) > PTRACERS_diffKh(76)=0.E3,
(PID.TID 0000.0001) > PTRACERS_diffKr(76)=1.E-6,
(PID.TID 0000.0001) > PTRACERS_useKPP(76)=.TRUE.  ,
(PID.TID 0000.0001) ># tracer 77 - PHY56
(PID.TID 0000.0001) > PTRACERS_names(77)='Phy56',
(PID.TID 0000.0001) > PTRACERS_units(77)='mmol P/m^3'
(PID.TID 0000.0001) > PTRACERS_advScheme(77)=33,
(PID.TID 0000.0001) > PTRACERS_diffKh(77)=0.E3,
(PID.TID 0000.0001) > PTRACERS_diffKr(77)=1.E-6,
(PID.TID 0000.0001) > PTRACERS_useKPP(77)=.TRUE.  ,
(PID.TID 0000.0001) ># tracer 78 - PHY57
(PID.TID 0000.0001) > PTRACERS_names(78)='Phy57',
(PID.TID 0000.0001) > PTRACERS_units(78)='mmol P/m^3'
(PID.TID 0000.0001) > PTRACERS_advScheme(78)=33,
(PID.TID 0000.0001) > PTRACERS_diffKh(78)=0.E3,
(PID.TID 0000.0001) > PTRACERS_diffKr(78)=1.E-6,
(PID.TID 0000.0001) > PTRACERS_useKPP(78)=.TRUE.  ,
(PID.TID 0000.0001) ># tracer 79 - PHY58
(PID.TID 0000.0001) > PTRACERS_names(79)='Phy58',
(PID.TID 0000.0001) > PTRACERS_units(79)='mmol P/m^3'
(PID.TID 0000.0001) > PTRACERS_advScheme(79)=33,
(PID.TID 0000.0001) > PTRACERS_diffKh(79)=0.E3,
(PID.TID 0000.0001) > PTRACERS_diffKr(79)=1.E-6,
(PID.TID 0000.0001) > PTRACERS_useKPP(79)=.TRUE.  ,
(PID.TID 0000.0001) ># tracer 80 - PHY59
(PID.TID 0000.0001) > PTRACERS_names(80)='Phy59',
(PID.TID 0000.0001) > PTRACERS_units(80)='mmol P/m^3'
(PID.TID 0000.0001) > PTRACERS_advScheme(80)=33,
(PID.TID 0000.0001) > PTRACERS_diffKh(80)=0.E3,
(PID.TID 0000.0001) > PTRACERS_diffKr(80)=1.E-6,
(PID.TID 0000.0001) > PTRACERS_useKPP(80)=.TRUE.  ,
(PID.TID 0000.0001) ># tracer 81 - PHY60
(PID.TID 0000.0001) > PTRACERS_names(81)='Phy60',
(PID.TID 0000.0001) > PTRACERS_units(81)='mmol P/m^3'
(PID.TID 0000.0001) > PTRACERS_advScheme(81)=33,
(PID.TID 0000.0001) > PTRACERS_diffKh(81)=0.E3,
(PID.TID 0000.0001) > PTRACERS_diffKr(81)=1.E-6,
(PID.TID 0000.0001) > PTRACERS_useKPP(81)=.TRUE.  ,
(PID.TID 0000.0001) ># tracer 82 - PHY61
(PID.TID 0000.0001) > PTRACERS_names(82)='Phy61',
(PID.TID 0000.0001) > PTRACERS_units(82)='mmol P/m^3'
(PID.TID 0000.0001) > PTRACERS_advScheme(82)=33,
(PID.TID 0000.0001) > PTRACERS_diffKh(82)=0.E3,
(PID.TID 0000.0001) > PTRACERS_diffKr(82)=1.E-6,
(PID.TID 0000.0001) > PTRACERS_useKPP(82)=.TRUE.  ,
(PID.TID 0000.0001) ># tracer 83 - PHY62
(PID.TID 0000.0001) > PTRACERS_names(83)='Phy62',
(PID.TID 0000.0001) > PTRACERS_units(83)='mmol P/m^3'
(PID.TID 0000.0001) > PTRACERS_advScheme(83)=33,
(PID.TID 0000.0001) > PTRACERS_diffKh(83)=0.E3,
(PID.TID 0000.0001) > PTRACERS_diffKr(83)=1.E-6,
(PID.TID 0000.0001) > PTRACERS_useKPP(83)=.TRUE.  ,
(PID.TID 0000.0001) ># tracer 84 - PHY63
(PID.TID 0000.0001) > PTRACERS_names(84)='Phy63',
(PID.TID 0000.0001) > PTRACERS_units(84)='mmol P/m^3'
(PID.TID 0000.0001) > PTRACERS_advScheme(84)=33,
(PID.TID 0000.0001) > PTRACERS_diffKh(84)=0.E3,
(PID.TID 0000.0001) > PTRACERS_diffKr(84)=1.E-6,
(PID.TID 0000.0001) > PTRACERS_useKPP(84)=.TRUE.  ,
(PID.TID 0000.0001) ># tracer 85 - PHY64
(PID.TID 0000.0001) > PTRACERS_names(85)='Phy64',
(PID.TID 0000.0001) > PTRACERS_units(85)='mmol P/m^3'
(PID.TID 0000.0001) > PTRACERS_advScheme(85)=33,
(PID.TID 0000.0001) > PTRACERS_diffKh(85)=0.E3,
(PID.TID 0000.0001) > PTRACERS_diffKr(85)=1.E-6,
(PID.TID 0000.0001) > PTRACERS_useKPP(85)=.TRUE.  ,
(PID.TID 0000.0001) ># tracer 86 - PHY65
(PID.TID 0000.0001) > PTRACERS_names(86)='Phy65',
(PID.TID 0000.0001) > PTRACERS_units(86)='mmol P/m^3'
(PID.TID 0000.0001) > PTRACERS_advScheme(86)=33,
(PID.TID 0000.0001) > PTRACERS_diffKh(86)=0.E3,
(PID.TID 0000.0001) > PTRACERS_diffKr(86)=1.E-6,
(PID.TID 0000.0001) > PTRACERS_useKPP(86)=.TRUE.  ,
(PID.TID 0000.0001) ># tracer 87 - PHY66
(PID.TID 0000.0001) > PTRACERS_names(87)='Phy66',
(PID.TID 0000.0001) > PTRACERS_units(87)='mmol P/m^3'
(PID.TID 0000.0001) > PTRACERS_advScheme(87)=33,
(PID.TID 0000.0001) > PTRACERS_diffKh(87)=0.E3,
(PID.TID 0000.0001) > PTRACERS_diffKr(87)=1.E-6,
(PID.TID 0000.0001) > PTRACERS_useKPP(87)=.TRUE.  ,
(PID.TID 0000.0001) ># tracer 88 - PHY67
(PID.TID 0000.0001) > PTRACERS_names(88)='Phy67',
(PID.TID 0000.0001) > PTRACERS_units(88)='mmol P/m^3'
(PID.TID 0000.0001) > PTRACERS_advScheme(88)=33,
(PID.TID 0000.0001) > PTRACERS_diffKh(88)=0.E3,
(PID.TID 0000.0001) > PTRACERS_diffKr(88)=1.E-6,
(PID.TID 0000.0001) > PTRACERS_useKPP(88)=.TRUE.  ,
(PID.TID 0000.0001) ># tracer 89 - PHY68
(PID.TID 0000.0001) > PTRACERS_names(89)='Phy68',
(PID.TID 0000.0001) > PTRACERS_units(89)='mmol P/m^3'
(PID.TID 0000.0001) > PTRACERS_advScheme(89)=33,
(PID.TID 0000.0001) > PTRACERS_diffKh(89)=0.E3,
(PID.TID 0000.0001) > PTRACERS_diffKr(89)=1.E-6,
(PID.TID 0000.0001) > PTRACERS_useKPP(89)=.TRUE.  ,
(PID.TID 0000.0001) ># tracer 90 - PHY69
(PID.TID 0000.0001) > PTRACERS_names(90)='Phy69',
(PID.TID 0000.0001) > PTRACERS_units(90)='mmol P/m^3'
(PID.TID 0000.0001) > PTRACERS_advScheme(90)=33,
(PID.TID 0000.0001) > PTRACERS_diffKh(90)=0.E3,
(PID.TID 0000.0001) > PTRACERS_diffKr(90)=1.E-6,
(PID.TID 0000.0001) > PTRACERS_useKPP(90)=.TRUE.  ,
(PID.TID 0000.0001) ># tracer 91 - PHY70
(PID.TID 0000.0001) > PTRACERS_names(91)='Phy70',
(PID.TID 0000.0001) > PTRACERS_units(91)='mmol P/m^3'
(PID.TID 0000.0001) > PTRACERS_advScheme(91)=33,
(PID.TID 0000.0001) > PTRACERS_diffKh(91)=0.E3,
(PID.TID 0000.0001) > PTRACERS_diffKr(91)=1.E-6,
(PID.TID 0000.0001) > PTRACERS_useKPP(91)=.TRUE.  ,
(PID.TID 0000.0001) ># tracer 92 - PHY71
(PID.TID 0000.0001) > PTRACERS_names(92)='Phy71',
(PID.TID 0000.0001) > PTRACERS_units(92)='mmol P/m^3'
(PID.TID 0000.0001) > PTRACERS_advScheme(92)=33,
(PID.TID 0000.0001) > PTRACERS_diffKh(92)=0.E3,
(PID.TID 0000.0001) > PTRACERS_diffKr(92)=1.E-6,
(PID.TID 0000.0001) > PTRACERS_useKPP(92)=.TRUE.  ,
(PID.TID 0000.0001) ># tracer 93 - PHY72
(PID.TID 0000.0001) > PTRACERS_names(93)='Phy72',
(PID.TID 0000.0001) > PTRACERS_units(93)='mmol P/m^3'
(PID.TID 0000.0001) > PTRACERS_advScheme(93)=33,
(PID.TID 0000.0001) > PTRACERS_diffKh(93)=0.E3,
(PID.TID 0000.0001) > PTRACERS_diffKr(93)=1.E-6,
(PID.TID 0000.0001) > PTRACERS_useKPP(93)=.TRUE.  ,
(PID.TID 0000.0001) ># tracer 94 - PHY73
(PID.TID 0000.0001) > PTRACERS_names(94)='Phy73',
(PID.TID 0000.0001) > PTRACERS_units(94)='mmol P/m^3'
(PID.TID 0000.0001) > PTRACERS_advScheme(94)=33,
(PID.TID 0000.0001) > PTRACERS_diffKh(94)=0.E3,
(PID.TID 0000.0001) > PTRACERS_diffKr(94)=1.E-6,
(PID.TID 0000.0001) > PTRACERS_useKPP(94)=.TRUE.  ,
(PID.TID 0000.0001) ># tracer 95 - PHY74
(PID.TID 0000.0001) > PTRACERS_names(95)='Phy74',
(PID.TID 0000.0001) > PTRACERS_units(95)='mmol P/m^3'
(PID.TID 0000.0001) > PTRACERS_advScheme(95)=33,
(PID.TID 0000.0001) > PTRACERS_diffKh(95)=0.E3,
(PID.TID 0000.0001) > PTRACERS_diffKr(95)=1.E-6,
(PID.TID 0000.0001) > PTRACERS_useKPP(95)=.TRUE.  ,
(PID.TID 0000.0001) ># tracer 96 - PHY75
(PID.TID 0000.0001) > PTRACERS_names(96)='Phy75',
(PID.TID 0000.0001) > PTRACERS_units(96)='mmol P/m^3'
(PID.TID 0000.0001) > PTRACERS_advScheme(96)=33,
(PID.TID 0000.0001) > PTRACERS_diffKh(96)=0.E3,
(PID.TID 0000.0001) > PTRACERS_diffKr(96)=1.E-6,
(PID.TID 0000.0001) > PTRACERS_useKPP(96)=.TRUE.  ,
(PID.TID 0000.0001) ># tracer 97 - PHY76
(PID.TID 0000.0001) > PTRACERS_names(97)='Phy76',
(PID.TID 0000.0001) > PTRACERS_units(97)='mmol P/m^3'
(PID.TID 0000.0001) > PTRACERS_advScheme(97)=33,
(PID.TID 0000.0001) > PTRACERS_diffKh(97)=0.E3,
(PID.TID 0000.0001) > PTRACERS_diffKr(97)=1.E-6,
(PID.TID 0000.0001) > PTRACERS_useKPP(97)=.TRUE.  ,
(PID.TID 0000.0001) ># tracer 98 - PHY77
(PID.TID 0000.0001) > PTRACERS_names(98)='Phy77',
(PID.TID 0000.0001) > PTRACERS_units(98)='mmol P/m^3'
(PID.TID 0000.0001) > PTRACERS_advScheme(98)=33,
(PID.TID 0000.0001) > PTRACERS_diffKh(98)=0.E3,
(PID.TID 0000.0001) > PTRACERS_diffKr(98)=1.E-6,
(PID.TID 0000.0001) > PTRACERS_useKPP(98)=.TRUE.  ,
(PID.TID 0000.0001) ># tracer 99 - PHY78
(PID.TID 0000.0001) > PTRACERS_names(99)='Phy78',
(PID.TID 0000.0001) > PTRACERS_units(99)='mmol P/m^3'
(PID.TID 0000.0001) > PTRACERS_advScheme(99)=33,
(PID.TID 0000.0001) > PTRACERS_diffKh(99)=0.E3,
(PID.TID 0000.0001) > PTRACERS_diffKr(99)=1.E-6,
(PID.TID 0000.0001) > PTRACERS_useKPP(99)=.TRUE.  ,
(PID.TID 0000.0001) > /
(PID.TID 0000.0001) 
(PID.TID 0000.0001)  PTRACERS_READPARMS: finished reading data.ptracers
(PID.TID 0000.0001)  GCHEM_READPARMS: opening data.gchem
(PID.TID 0000.0001)  OPEN_COPY_DATA_FILE: opening file data.gchem
(PID.TID 0000.0001) // =======================================================
(PID.TID 0000.0001) // Parameter file "data.gchem"
(PID.TID 0000.0001) // =======================================================
(PID.TID 0000.0001) > &GCHEM_PARM01
(PID.TID 0000.0001) > useDARWIN=.TRUE.,
(PID.TID 0000.0001) > nsubtime=1,
(PID.TID 0000.0001) ># now set in data.darwin
(PID.TID 0000.0001) >#gchem_ForcingPeriod=2592000.,
(PID.TID 0000.0001) >#gchem_ForcingCycle=31104000.,
(PID.TID 0000.0001) > /
(PID.TID 0000.0001) 
(PID.TID 0000.0001)  GCHEM_READPARMS: finished reading data.gchem
(PID.TID 0000.0001)  DARWIN_READPARMS: opening data.darwin
(PID.TID 0000.0001)  OPEN_COPY_DATA_FILE: opening file data.darwin
(PID.TID 0000.0001) // =======================================================
(PID.TID 0000.0001) // Parameter file "data.darwin"
(PID.TID 0000.0001) // =======================================================
(PID.TID 0000.0001) > &DARWIN_FORCING
(PID.TID 0000.0001) >#darwin_iceFile='darwin/nasa_icefraction_mth-2d.bin',
(PID.TID 0000.0001) > darwin_ironFile='Fe_const_76x72_12.bin',
(PID.TID 0000.0001) >#darwin_PARFile='darwin/par_ecco.bin_mth-2d.bin',
(PID.TID 0000.0001) >#darwin_nutWVelFile='',
(PID.TID 0000.0001) > darwin_forcingPeriod=2592000.,
(PID.TID 0000.0001) > darwin_forcingCycle=31104000.,
(PID.TID 0000.0001) > darwin_seed=11231,
(PID.TID 0000.0001) > /
(PID.TID 0000.0001) 
(PID.TID 0000.0001)  DARWIN_READPARMS: finished reading data.darwin
(PID.TID 0000.0001) // ===================================
(PID.TID 0000.0001) // darwin parameters
(PID.TID 0000.0001) // ===================================
(PID.TID 0000.0001) darwin_seed = /* seed for random number generator */
(PID.TID 0000.0001)                   11231
(PID.TID 0000.0001)     ;
(PID.TID 0000.0001)  -----------------------------------
(PID.TID 0000.0001)  ===================================
(PID.TID 0000.0001)  DIAGNOSTICS_READPARMS: opening data.diagnostics
(PID.TID 0000.0001)  OPEN_COPY_DATA_FILE: opening file data.diagnostics
(PID.TID 0000.0001) // =======================================================
(PID.TID 0000.0001) // Parameter file "data.diagnostics"
(PID.TID 0000.0001) // =======================================================
(PID.TID 0000.0001) ># Darwin diagnostics
(PID.TID 0000.0001) ># ==================
(PID.TID 0000.0001) ># PAR                 Photosynthetically active radiation
(PID.TID 0000.0001) ># PP                  Primary production
(PID.TID 0000.0001) ># Nfix                Nitrogen fixation
(PID.TID 0000.0001) ># Rstar01             Rstar^PO4 of Phy01
(PID.TID 0000.0001) ># Diver1              # Phy species over absolute threshold'
(PID.TID 0000.0001) ># Diver2              # Phy species over threshold for proportion of biomass'
(PID.TID 0000.0001) ># Diver3              # Phy species constituting bulk of biomass'
(PID.TID 0000.0001) ># Diver4              # Phy species over threshold for ratio to maximum species'
(PID.TID 0000.0001) >#
(PID.TID 0000.0001) > &diagnostics_list
(PID.TID 0000.0001) >#
(PID.TID 0000.0001) >  frequency(1) = 86400.,
(PID.TID 0000.0001) >   fields(1,1) = 'THETA   ',
(PID.TID 0000.0001) >   filename(1) = 'THETA_day',
(PID.TID 0000.0001) >  frequency(2) = 86400.,
(PID.TID 0000.0001) >   fields(1,2) = 'SALTanom',
(PID.TID 0000.0001) >   filename(2) = 'SALTanom_day',
(PID.TID 0000.0001) >  frequency(3) = 86400.,
(PID.TID 0000.0001) >   fields(1,3) = 'SIarea  ',
(PID.TID 0000.0001) >   filename(3) = 'SIarea_day',
(PID.TID 0000.0001) >  frequency(4) = 86400.,
(PID.TID 0000.0001) >   fields(1,4) = 'SIheff  ',
(PID.TID 0000.0001) >   filename(4) = 'SIheff_day',
(PID.TID 0000.0001) >  frequency(5) = 86400.,
(PID.TID 0000.0001) >   fields(1,5) = 'SIhsnow ',
(PID.TID 0000.0001) >   filename(5) = 'SIhsnow_day',
(PID.TID 0000.0001) >  frequency(6) = 86400.,
(PID.TID 0000.0001) >   fields(1,6) = 'SIqsw   ',
(PID.TID 0000.0001) >   filename(6) = 'SIqsw_day',
(PID.TID 0000.0001) >#
(PID.TID 0000.0001) >  frequency(11) = 86400.,
(PID.TID 0000.0001) >   fields(1,11) = 'PAR     ',
(PID.TID 0000.0001) >   filename(11) = 'PAR_day',
(PID.TID 0000.0001) >  frequency(12) = 86400.,
(PID.TID 0000.0001) >   fields(1,12) = 'PP      ',
(PID.TID 0000.0001) >   filename(12) = 'PP_day',
(PID.TID 0000.0001) >  frequency(13) = 86400.,
(PID.TID 0000.0001) >   fields(1,13) = 'Nfix    ',
(PID.TID 0000.0001) >   filename(13) = 'Nfix_day',
(PID.TID 0000.0001) >#
(PID.TID 0000.0001) >  frequency(14) = 86400.,
(PID.TID 0000.0001) >  fields( 1,14) = 'TRAC01  ',
(PID.TID 0000.0001) >  fields( 2,14) = 'TRAC02  ',
(PID.TID 0000.0001) >  fields( 3,14) = 'TRAC03  ',
(PID.TID 0000.0001) >  fields( 4,14) = 'TRAC04  ',
(PID.TID 0000.0001) >  fields( 5,14) = 'TRAC05  ',
(PID.TID 0000.0001) >  fields( 6,14) = 'TRAC06  ',
(PID.TID 0000.0001) >  fields( 7,14) = 'TRAC07  ',
(PID.TID 0000.0001) >  fields( 8,14) = 'TRAC08  ',
(PID.TID 0000.0001) >  fields( 9,14) = 'TRAC09  ',
(PID.TID 0000.0001) >  fields(10,14) = 'TRAC10  ',
(PID.TID 0000.0001) >  fields(11,14) = 'TRAC11  ',
(PID.TID 0000.0001) >  fields(12,14) = 'TRAC12  ',
(PID.TID 0000.0001) >  fields(13,14) = 'TRAC13  ',
(PID.TID 0000.0001) >  fields(14,14) = 'TRAC14  ',
(PID.TID 0000.0001) >  fields(15,14) = 'TRAC15  ',
(PID.TID 0000.0001) >  fields(16,14) = 'TRAC16  ',
(PID.TID 0000.0001) >  fields(17,14) = 'TRAC17  ',
(PID.TID 0000.0001) >  fields(18,14) = 'TRAC18  ',
(PID.TID 0000.0001) >  fields(19,14) = 'TRAC19  ',
(PID.TID 0000.0001) >  fields(20,14) = 'TRAC20  ',
(PID.TID 0000.0001) >  fields(21,14) = 'TRAC21  ',
(PID.TID 0000.0001) >  fields(22,14) = 'TRAC22  ',
(PID.TID 0000.0001) >  fields(23,14) = 'TRAC23  ',
(PID.TID 0000.0001) >  fields(24,14) = 'TRAC24  ',
(PID.TID 0000.0001) >  fields(25,14) = 'TRAC25  ',
(PID.TID 0000.0001) >  fields(26,14) = 'TRAC26  ',
(PID.TID 0000.0001) >  fields(27,14) = 'TRAC27  ',
(PID.TID 0000.0001) >  fields(28,14) = 'TRAC28  ',
(PID.TID 0000.0001) >  fields(29,14) = 'TRAC29  ',
(PID.TID 0000.0001) >  fields(30,14) = 'TRAC30  ',
(PID.TID 0000.0001) >  fields(31,14) = 'TRAC31  ',
(PID.TID 0000.0001) >  fields(32,14) = 'TRAC32  ',
(PID.TID 0000.0001) >  fields(33,14) = 'TRAC33  ',
(PID.TID 0000.0001) >  fields(34,14) = 'TRAC34  ',
(PID.TID 0000.0001) >  fields(35,14) = 'TRAC35  ',
(PID.TID 0000.0001) >  fields(36,14) = 'TRAC36  ',
(PID.TID 0000.0001) >  fields(37,14) = 'TRAC37  ',
(PID.TID 0000.0001) >  fields(38,14) = 'TRAC38  ',
(PID.TID 0000.0001) >  fields(39,14) = 'TRAC39  ',
(PID.TID 0000.0001) >  fields(40,14) = 'TRAC40  ',
(PID.TID 0000.0001) >  fields(41,14) = 'TRAC41  ',
(PID.TID 0000.0001) >  fields(42,14) = 'TRAC42  ',
(PID.TID 0000.0001) >  fields(43,14) = 'TRAC43  ',
(PID.TID 0000.0001) >  fields(44,14) = 'TRAC44  ',
(PID.TID 0000.0001) >  fields(45,14) = 'TRAC45  ',
(PID.TID 0000.0001) >  fields(46,14) = 'TRAC46  ',
(PID.TID 0000.0001) >  fields(47,14) = 'TRAC47  ',
(PID.TID 0000.0001) >  fields(48,14) = 'TRAC48  ',
(PID.TID 0000.0001) >  fields(49,14) = 'TRAC49  ',
(PID.TID 0000.0001) >  fields(50,14) = 'TRAC50  ',
(PID.TID 0000.0001) >  fields(51,14) = 'TRAC51  ',
(PID.TID 0000.0001) >  fields(52,14) = 'TRAC52  ',
(PID.TID 0000.0001) >  fields(53,14) = 'TRAC53  ',
(PID.TID 0000.0001) >  fields(54,14) = 'TRAC54  ',
(PID.TID 0000.0001) >  fields(55,14) = 'TRAC55  ',
(PID.TID 0000.0001) >  fields(56,14) = 'TRAC56  ',
(PID.TID 0000.0001) >  fields(57,14) = 'TRAC57  ',
(PID.TID 0000.0001) >  fields(58,14) = 'TRAC58  ',
(PID.TID 0000.0001) >  fields(59,14) = 'TRAC59  ',
(PID.TID 0000.0001) >  fields(60,14) = 'TRAC60  ',
(PID.TID 0000.0001) >  fields(61,14) = 'TRAC61  ',
(PID.TID 0000.0001) >  fields(62,14) = 'TRAC62  ',
(PID.TID 0000.0001) >  fields(63,14) = 'TRAC63  ',
(PID.TID 0000.0001) >  fields(64,14) = 'TRAC64  ',
(PID.TID 0000.0001) >  fields(65,14) = 'TRAC65  ',
(PID.TID 0000.0001) >  fields(66,14) = 'TRAC66  ',
(PID.TID 0000.0001) >  fields(67,14) = 'TRAC67  ',
(PID.TID 0000.0001) >  fields(68,14) = 'TRAC68  ',
(PID.TID 0000.0001) >  fields(69,14) = 'TRAC69  ',
(PID.TID 0000.0001) >  fields(70,14) = 'TRAC70  ',
(PID.TID 0000.0001) >  fields(71,14) = 'TRAC71  ',
(PID.TID 0000.0001) >  fields(72,14) = 'TRAC72  ',
(PID.TID 0000.0001) >  fields(73,14) = 'TRAC73  ',
(PID.TID 0000.0001) >  fields(74,14) = 'TRAC74  ',
(PID.TID 0000.0001) >  fields(75,14) = 'TRAC75  ',
(PID.TID 0000.0001) >  fields(76,14) = 'TRAC76  ',
(PID.TID 0000.0001) >  fields(77,14) = 'TRAC77  ',
(PID.TID 0000.0001) >  fields(78,14) = 'TRAC78  ',
(PID.TID 0000.0001) >  fields(79,14) = 'TRAC79  ',
(PID.TID 0000.0001) >  fields(80,14) = 'TRAC80  ',
(PID.TID 0000.0001) >  fields(81,14) = 'TRAC81  ',
(PID.TID 0000.0001) >  fields(82,14) = 'TRAC82  ',
(PID.TID 0000.0001) >  fields(83,14) = 'TRAC83  ',
(PID.TID 0000.0001) >  fields(84,14) = 'TRAC84  ',
(PID.TID 0000.0001) >  fields(85,14) = 'TRAC85  ',
(PID.TID 0000.0001) >  fields(86,14) = 'TRAC86  ',
(PID.TID 0000.0001) >  fields(87,14) = 'TRAC87  ',
(PID.TID 0000.0001) >  fields(88,14) = 'TRAC88  ',
(PID.TID 0000.0001) >  fields(89,14) = 'TRAC89  ',
(PID.TID 0000.0001) >  fields(90,14) = 'TRAC90  ',
(PID.TID 0000.0001) >  fields(91,14) = 'TRAC91  ',
(PID.TID 0000.0001) >  fields(92,14) = 'TRAC92  ',
(PID.TID 0000.0001) >  fields(93,14) = 'TRAC93  ',
(PID.TID 0000.0001) >  fields(94,14) = 'TRAC94  ',
(PID.TID 0000.0001) >  fields(95,14) = 'TRAC95  ',
(PID.TID 0000.0001) >  fields(96,14) = 'TRAC96  ',
(PID.TID 0000.0001) >  fields(97,14) = 'TRAC97  ',
(PID.TID 0000.0001) >  fields(98,14) = 'TRAC98  ',
(PID.TID 0000.0001) >  fields(99,14) = 'TRAC99  ',
(PID.TID 0000.0001) >  filename( 14) = 'ptracers',
(PID.TID 0000.0001) >#
(PID.TID 0000.0001) >  frequency(15) = 86400.,
(PID.TID 0000.0001) >   fields(1,15) = 'Diver1  ',
(PID.TID 0000.0001) >   filename(15) = 'Diver1',
(PID.TID 0000.0001) >  frequency(16) = 86400.,
(PID.TID 0000.0001) >   fields(1,16) = 'Diver2  ',
(PID.TID 0000.0001) >   filename(16) = 'Diver2',
(PID.TID 0000.0001) >  frequency(17) = 86400.,
(PID.TID 0000.0001) >   fields(1,17) = 'Diver3  ',
(PID.TID 0000.0001) >   filename(17) = 'Diver3',
(PID.TID 0000.0001) >  frequency(18) = 86400.,
(PID.TID 0000.0001) >   fields(1,18) = 'Diver4  ',
(PID.TID 0000.0001) >   filename(18) = 'Diver4',
(PID.TID 0000.0001) >  frequency(19) = 86400.,
(PID.TID 0000.0001) >   fields(1,19) = 'Shannon ',
(PID.TID 0000.0001) >   filename(19) = 'Shannon',
(PID.TID 0000.0001) >  frequency(20) = 86400.,
(PID.TID 0000.0001) >   fields(1,20) = 'Simpson ',
(PID.TID 0000.0001) >   filename(20) = 'Simpson',
(PID.TID 0000.0001) >#
(PID.TID 0000.0001) > /
(PID.TID 0000.0001) >
(PID.TID 0000.0001) ># Parameter for Diagnostics of per level statistics:
(PID.TID 0000.0001) >#-----------------
(PID.TID 0000.0001) ># for each output-stream:
(PID.TID 0000.0001) >#  stat_fname(n) : prefix of the output file name (only 8.c long) for
(PID.TID 0000.0001) >#outp.stream n
(PID.TID 0000.0001) >#  stat_freq(n):< 0 : write snap-shot output every |stat_freq| seconds
(PID.TID 0000.0001) >#               > 0 : write time-average output every stat_freq seconds
(PID.TID 0000.0001) >#  stat_phase(n)    : write at time = stat_phase + multiple of |stat_freq|
(PID.TID 0000.0001) >#  stat_region(:,n) : list of "regions" (default: 1 region only=global)
(PID.TID 0000.0001) >#  stat_fields(:,n) : list of diagnostics fields (8.c) (see
(PID.TID 0000.0001) >#"available_diagnostics.log"
(PID.TID 0000.0001) >#                 file for the list of all available diag. in this particular
(PID.TID 0000.0001) >#config)
(PID.TID 0000.0001) >#-----------------
(PID.TID 0000.0001) > &DIAG_STATIS_PARMS
(PID.TID 0000.0001) >#- an example just to check the agreement with MONITOR output:
(PID.TID 0000.0001) > stat_fields(1,1)= 'SIqsw   '
(PID.TID 0000.0001) >    stat_fname(1)= 'stat_SIqsw',
(PID.TID 0000.0001) >     stat_freq(1)= 1200.,
(PID.TID 0000.0001) >    stat_phase(1)= 0.,
(PID.TID 0000.0001) > stat_fields(1,2)= 'oceQsw  '
(PID.TID 0000.0001) >    stat_fname(2)= 'stat_oceQsw',
(PID.TID 0000.0001) >     stat_freq(2)= 1200.,
(PID.TID 0000.0001) >    stat_phase(2)= 0.,
(PID.TID 0000.0001) > stat_fields(1,3)= 'PAR     '
(PID.TID 0000.0001) >    stat_fname(3)= 'stat_PAR',
(PID.TID 0000.0001) >     stat_freq(3)= 1200.,
(PID.TID 0000.0001) >    stat_phase(3)= 0.,
(PID.TID 0000.0001) > stat_fields(1,4)= 'EXFswnet'
(PID.TID 0000.0001) >    stat_fname(4)= 'stat_EXFswnet',
(PID.TID 0000.0001) >     stat_freq(4)= 1200.,
(PID.TID 0000.0001) >    stat_phase(4)= 0.,
(PID.TID 0000.0001) > stat_fields(1,5)= 'EXFswdn '
(PID.TID 0000.0001) >    stat_fname(5)= 'stat_EXFswdn',
(PID.TID 0000.0001) >     stat_freq(5)= 1200.,
(PID.TID 0000.0001) >    stat_phase(5)= 0.,
(PID.TID 0000.0001) > stat_fields(1,6)= 'THETA   '
(PID.TID 0000.0001) >    stat_fname(6)= 'stat_THETA',
(PID.TID 0000.0001) >     stat_freq(6)= 1200.,
(PID.TID 0000.0001) >    stat_phase(6)= 0.,
(PID.TID 0000.0001) > stat_fields(1,7)= 'SALTanom'
(PID.TID 0000.0001) >    stat_fname(7)= 'stat_SALTanom',
(PID.TID 0000.0001) >     stat_freq(7)= 1200.,
(PID.TID 0000.0001) >    stat_phase(7)= 0.,
(PID.TID 0000.0001) > stat_fields(1,8)= 'PP      '
(PID.TID 0000.0001) >    stat_fname(8)= 'stat_PP',
(PID.TID 0000.0001) >     stat_freq(8)= 1200.,
(PID.TID 0000.0001) >    stat_phase(8)= 0.,
(PID.TID 0000.0001) > stat_fields(1,9)= 'TRAC79  '
(PID.TID 0000.0001) >    stat_fname(9)= 'stat_Phy58',
(PID.TID 0000.0001) >     stat_freq(9)= 1200.,
(PID.TID 0000.0001) >    stat_phase(9)= 0.,
(PID.TID 0000.0001) > stat_fields(1,10)= 'ETAN    '
(PID.TID 0000.0001) >    stat_fname(10)= 'stat_ETAN',
(PID.TID 0000.0001) >     stat_freq(10)= 1200.,
(PID.TID 0000.0001) >    stat_phase(10)= 0.,
(PID.TID 0000.0001) > stat_fields(1,11)= 'TRAC03  '
(PID.TID 0000.0001) >    stat_fname(11)= 'stat_FeT',
(PID.TID 0000.0001) >     stat_freq(11)= 1200.,
(PID.TID 0000.0001) >    stat_phase(11)= 0.,
(PID.TID 0000.0001) > stat_fields(1,12)= 'Diver1  '
(PID.TID 0000.0001) >    stat_fname(12)= 'stat_Diver1',
(PID.TID 0000.0001) >     stat_freq(12)= 1200.,
(PID.TID 0000.0001) >    stat_phase(12)= 0.,
(PID.TID 0000.0001) > stat_fields(1,13)= 'Diver2  '
(PID.TID 0000.0001) >    stat_fname(13)= 'stat_Diver2',
(PID.TID 0000.0001) >     stat_freq(13)= 1200.,
(PID.TID 0000.0001) >    stat_phase(13)= 0.,
(PID.TID 0000.0001) > stat_fields(1,14)= 'Diver3  '
(PID.TID 0000.0001) >    stat_fname(14)= 'stat_Diver3',
(PID.TID 0000.0001) >     stat_freq(14)= 1200.,
(PID.TID 0000.0001) >    stat_phase(14)= 0.,
(PID.TID 0000.0001) > stat_fields(1,15)= 'Diver4  '
(PID.TID 0000.0001) >    stat_fname(15)= 'stat_Diver4',
(PID.TID 0000.0001) >     stat_freq(15)= 1200.,
(PID.TID 0000.0001) >    stat_phase(15)= 0.,
(PID.TID 0000.0001) > stat_fields(1,16)= 'Shannon '
(PID.TID 0000.0001) >    stat_fname(16)= 'stat_Shannon',
(PID.TID 0000.0001) >     stat_freq(16)= 1200.,
(PID.TID 0000.0001) >    stat_phase(16)= 0.,
(PID.TID 0000.0001) > stat_fields(1,17)= 'Simpson '
(PID.TID 0000.0001) >    stat_fname(17)= 'stat_Simpson',
(PID.TID 0000.0001) >     stat_freq(17)= 1200.,
(PID.TID 0000.0001) >    stat_phase(17)= 0.,
(PID.TID 0000.0001) > /
(PID.TID 0000.0001) 
(PID.TID 0000.0001) S/R DIAGNOSTICS_READPARMS, read namelist "diagnostics_list": start
(PID.TID 0000.0001) S/R DIAGNOSTICS_READPARMS, read namelist "diagnostics_list": OK
(PID.TID 0000.0001) S/R DIAGNOSTICS_READPARMS, read namelist "DIAG_STATIS_PARMS": start
(PID.TID 0000.0001) S/R DIAGNOSTICS_READPARMS, read namelist "DIAG_STATIS_PARMS": OK
(PID.TID 0000.0001)  DIAGNOSTICS_READPARMS: global parameter summary:
(PID.TID 0000.0001)  dumpAtLast = /* always write time-ave diags at the end */
(PID.TID 0000.0001)                   F
(PID.TID 0000.0001)     ;
(PID.TID 0000.0001)  diag_mnc =   /* write NetCDF output files */
(PID.TID 0000.0001)                   F
(PID.TID 0000.0001)     ;
(PID.TID 0000.0001)  useMissingValue = /* put MissingValue where mask = 0 */
(PID.TID 0000.0001)                   F
(PID.TID 0000.0001)     ;
(PID.TID 0000.0001)  diagCG_maxIters = /* max number of iters in diag_cg2d */
(PID.TID 0000.0001)                     100
(PID.TID 0000.0001)     ;
(PID.TID 0000.0001)  diagCG_resTarget = /* residual target for diag_cg2d */
(PID.TID 0000.0001)                 1.000000000000000E-05
(PID.TID 0000.0001)     ;
(PID.TID 0000.0001) -----------------------------------------------------
(PID.TID 0000.0001)  DIAGNOSTICS_READPARMS: active diagnostics summary:
(PID.TID 0000.0001) -----------------------------------------------------
(PID.TID 0000.0001) Creating Output Stream: THETA_day
(PID.TID 0000.0001) Output Frequency:      86400.000000 ; Phase:           0.000000
(PID.TID 0000.0001)  Averaging Freq.:      86400.000000 , Phase:           0.000000 , Cycle:   1
(PID.TID 0000.0001)  missing value: -9.990000000000E+02
(PID.TID 0000.0001)  Levels:    will be set later
(PID.TID 0000.0001)  Fields:    THETA
(PID.TID 0000.0001) Creating Output Stream: SALTanom_day
(PID.TID 0000.0001) Output Frequency:      86400.000000 ; Phase:           0.000000
(PID.TID 0000.0001)  Averaging Freq.:      86400.000000 , Phase:           0.000000 , Cycle:   1
(PID.TID 0000.0001)  missing value: -9.990000000000E+02
(PID.TID 0000.0001)  Levels:    will be set later
(PID.TID 0000.0001)  Fields:    SALTanom
(PID.TID 0000.0001) Creating Output Stream: SIarea_day
(PID.TID 0000.0001) Output Frequency:      86400.000000 ; Phase:           0.000000
(PID.TID 0000.0001)  Averaging Freq.:      86400.000000 , Phase:           0.000000 , Cycle:   1
(PID.TID 0000.0001)  missing value: -9.990000000000E+02
(PID.TID 0000.0001)  Levels:    will be set later
(PID.TID 0000.0001)  Fields:    SIarea
(PID.TID 0000.0001) Creating Output Stream: SIheff_day
(PID.TID 0000.0001) Output Frequency:      86400.000000 ; Phase:           0.000000
(PID.TID 0000.0001)  Averaging Freq.:      86400.000000 , Phase:           0.000000 , Cycle:   1
(PID.TID 0000.0001)  missing value: -9.990000000000E+02
(PID.TID 0000.0001)  Levels:    will be set later
(PID.TID 0000.0001)  Fields:    SIheff
(PID.TID 0000.0001) Creating Output Stream: SIhsnow_day
(PID.TID 0000.0001) Output Frequency:      86400.000000 ; Phase:           0.000000
(PID.TID 0000.0001)  Averaging Freq.:      86400.000000 , Phase:           0.000000 , Cycle:   1
(PID.TID 0000.0001)  missing value: -9.990000000000E+02
(PID.TID 0000.0001)  Levels:    will be set later
(PID.TID 0000.0001)  Fields:    SIhsnow
(PID.TID 0000.0001) Creating Output Stream: SIqsw_day
(PID.TID 0000.0001) Output Frequency:      86400.000000 ; Phase:           0.000000
(PID.TID 0000.0001)  Averaging Freq.:      86400.000000 , Phase:           0.000000 , Cycle:   1
(PID.TID 0000.0001)  missing value: -9.990000000000E+02
(PID.TID 0000.0001)  Levels:    will be set later
(PID.TID 0000.0001)  Fields:    SIqsw
(PID.TID 0000.0001) Creating Output Stream: PAR_day
(PID.TID 0000.0001) Output Frequency:      86400.000000 ; Phase:           0.000000
(PID.TID 0000.0001)  Averaging Freq.:      86400.000000 , Phase:           0.000000 , Cycle:   1
(PID.TID 0000.0001)  missing value: -9.990000000000E+02
(PID.TID 0000.0001)  Levels:    will be set later
(PID.TID 0000.0001)  Fields:    PAR
(PID.TID 0000.0001) Creating Output Stream: PP_day
(PID.TID 0000.0001) Output Frequency:      86400.000000 ; Phase:           0.000000
(PID.TID 0000.0001)  Averaging Freq.:      86400.000000 , Phase:           0.000000 , Cycle:   1
(PID.TID 0000.0001)  missing value: -9.990000000000E+02
(PID.TID 0000.0001)  Levels:    will be set later
(PID.TID 0000.0001)  Fields:    PP
(PID.TID 0000.0001) Creating Output Stream: Nfix_day
(PID.TID 0000.0001) Output Frequency:      86400.000000 ; Phase:           0.000000
(PID.TID 0000.0001)  Averaging Freq.:      86400.000000 , Phase:           0.000000 , Cycle:   1
(PID.TID 0000.0001)  missing value: -9.990000000000E+02
(PID.TID 0000.0001)  Levels:    will be set later
(PID.TID 0000.0001)  Fields:    Nfix
(PID.TID 0000.0001) Creating Output Stream: ptracers
(PID.TID 0000.0001) Output Frequency:      86400.000000 ; Phase:           0.000000
(PID.TID 0000.0001)  Averaging Freq.:      86400.000000 , Phase:           0.000000 , Cycle:   1
(PID.TID 0000.0001)  missing value: -9.990000000000E+02
(PID.TID 0000.0001)  Levels:    will be set later
(PID.TID 0000.0001)  Fields:    TRAC01   TRAC02   TRAC03   TRAC04   TRAC05   TRAC06   TRAC07   TRAC08   TRAC09   TRAC10
(PID.TID 0000.0001)  Fields:    TRAC11   TRAC12   TRAC13   TRAC14   TRAC15   TRAC16   TRAC17   TRAC18   TRAC19   TRAC20
(PID.TID 0000.0001)  Fields:    TRAC21   TRAC22   TRAC23   TRAC24   TRAC25   TRAC26   TRAC27   TRAC28   TRAC29   TRAC30
(PID.TID 0000.0001)  Fields:    TRAC31   TRAC32   TRAC33   TRAC34   TRAC35   TRAC36   TRAC37   TRAC38   TRAC39   TRAC40
(PID.TID 0000.0001)  Fields:    TRAC41   TRAC42   TRAC43   TRAC44   TRAC45   TRAC46   TRAC47   TRAC48   TRAC49   TRAC50
(PID.TID 0000.0001)  Fields:    TRAC51   TRAC52   TRAC53   TRAC54   TRAC55   TRAC56   TRAC57   TRAC58   TRAC59   TRAC60
(PID.TID 0000.0001)  Fields:    TRAC61   TRAC62   TRAC63   TRAC64   TRAC65   TRAC66   TRAC67   TRAC68   TRAC69   TRAC70
(PID.TID 0000.0001)  Fields:    TRAC71   TRAC72   TRAC73   TRAC74   TRAC75   TRAC76   TRAC77   TRAC78   TRAC79   TRAC80
(PID.TID 0000.0001)  Fields:    TRAC81   TRAC82   TRAC83   TRAC84   TRAC85   TRAC86   TRAC87   TRAC88   TRAC89   TRAC90
(PID.TID 0000.0001)  Fields:    TRAC91   TRAC92   TRAC93   TRAC94   TRAC95   TRAC96   TRAC97   TRAC98   TRAC99
(PID.TID 0000.0001) Creating Output Stream: Diver1
(PID.TID 0000.0001) Output Frequency:      86400.000000 ; Phase:           0.000000
(PID.TID 0000.0001)  Averaging Freq.:      86400.000000 , Phase:           0.000000 , Cycle:   1
(PID.TID 0000.0001)  missing value: -9.990000000000E+02
(PID.TID 0000.0001)  Levels:    will be set later
(PID.TID 0000.0001)  Fields:    Diver1
(PID.TID 0000.0001) Creating Output Stream: Diver2
(PID.TID 0000.0001) Output Frequency:      86400.000000 ; Phase:           0.000000
(PID.TID 0000.0001)  Averaging Freq.:      86400.000000 , Phase:           0.000000 , Cycle:   1
(PID.TID 0000.0001)  missing value: -9.990000000000E+02
(PID.TID 0000.0001)  Levels:    will be set later
(PID.TID 0000.0001)  Fields:    Diver2
(PID.TID 0000.0001) Creating Output Stream: Diver3
(PID.TID 0000.0001) Output Frequency:      86400.000000 ; Phase:           0.000000
(PID.TID 0000.0001)  Averaging Freq.:      86400.000000 , Phase:           0.000000 , Cycle:   1
(PID.TID 0000.0001)  missing value: -9.990000000000E+02
(PID.TID 0000.0001)  Levels:    will be set later
(PID.TID 0000.0001)  Fields:    Diver3
(PID.TID 0000.0001) Creating Output Stream: Diver4
(PID.TID 0000.0001) Output Frequency:      86400.000000 ; Phase:           0.000000
(PID.TID 0000.0001)  Averaging Freq.:      86400.000000 , Phase:           0.000000 , Cycle:   1
(PID.TID 0000.0001)  missing value: -9.990000000000E+02
(PID.TID 0000.0001)  Levels:    will be set later
(PID.TID 0000.0001)  Fields:    Diver4
(PID.TID 0000.0001) Creating Output Stream: Shannon
(PID.TID 0000.0001) Output Frequency:      86400.000000 ; Phase:           0.000000
(PID.TID 0000.0001)  Averaging Freq.:      86400.000000 , Phase:           0.000000 , Cycle:   1
(PID.TID 0000.0001)  missing value: -9.990000000000E+02
(PID.TID 0000.0001)  Levels:    will be set later
(PID.TID 0000.0001)  Fields:    Shannon
(PID.TID 0000.0001) Creating Output Stream: Simpson
(PID.TID 0000.0001) Output Frequency:      86400.000000 ; Phase:           0.000000
(PID.TID 0000.0001)  Averaging Freq.:      86400.000000 , Phase:           0.000000 , Cycle:   1
(PID.TID 0000.0001)  missing value: -9.990000000000E+02
(PID.TID 0000.0001)  Levels:    will be set later
(PID.TID 0000.0001)  Fields:    Simpson
(PID.TID 0000.0001) -----------------------------------------------------
(PID.TID 0000.0001)  DIAGNOSTICS_READPARMS: statistics diags. summary:
(PID.TID 0000.0001) Creating Stats. Output Stream: stat_SIqsw
(PID.TID 0000.0001) Output Frequency:       1200.000000 ; Phase:           0.000000
(PID.TID 0000.0001)  Regions:   0
(PID.TID 0000.0001)  Fields:    SIqsw
(PID.TID 0000.0001) Creating Stats. Output Stream: stat_oceQsw
(PID.TID 0000.0001) Output Frequency:       1200.000000 ; Phase:           0.000000
(PID.TID 0000.0001)  Regions:   0
(PID.TID 0000.0001)  Fields:    oceQsw
(PID.TID 0000.0001) Creating Stats. Output Stream: stat_PAR
(PID.TID 0000.0001) Output Frequency:       1200.000000 ; Phase:           0.000000
(PID.TID 0000.0001)  Regions:   0
(PID.TID 0000.0001)  Fields:    PAR
(PID.TID 0000.0001) Creating Stats. Output Stream: stat_EXFswnet
(PID.TID 0000.0001) Output Frequency:       1200.000000 ; Phase:           0.000000
(PID.TID 0000.0001)  Regions:   0
(PID.TID 0000.0001)  Fields:    EXFswnet
(PID.TID 0000.0001) Creating Stats. Output Stream: stat_EXFswdn
(PID.TID 0000.0001) Output Frequency:       1200.000000 ; Phase:           0.000000
(PID.TID 0000.0001)  Regions:   0
(PID.TID 0000.0001)  Fields:    EXFswdn
(PID.TID 0000.0001) Creating Stats. Output Stream: stat_THETA
(PID.TID 0000.0001) Output Frequency:       1200.000000 ; Phase:           0.000000
(PID.TID 0000.0001)  Regions:   0
(PID.TID 0000.0001)  Fields:    THETA
(PID.TID 0000.0001) Creating Stats. Output Stream: stat_SALTanom
(PID.TID 0000.0001) Output Frequency:       1200.000000 ; Phase:           0.000000
(PID.TID 0000.0001)  Regions:   0
(PID.TID 0000.0001)  Fields:    SALTanom
(PID.TID 0000.0001) Creating Stats. Output Stream: stat_PP
(PID.TID 0000.0001) Output Frequency:       1200.000000 ; Phase:           0.000000
(PID.TID 0000.0001)  Regions:   0
(PID.TID 0000.0001)  Fields:    PP
(PID.TID 0000.0001) Creating Stats. Output Stream: stat_Phy58
(PID.TID 0000.0001) Output Frequency:       1200.000000 ; Phase:           0.000000
(PID.TID 0000.0001)  Regions:   0
(PID.TID 0000.0001)  Fields:    TRAC79
(PID.TID 0000.0001) Creating Stats. Output Stream: stat_ETAN
(PID.TID 0000.0001) Output Frequency:       1200.000000 ; Phase:           0.000000
(PID.TID 0000.0001)  Regions:   0
(PID.TID 0000.0001)  Fields:    ETAN
(PID.TID 0000.0001) Creating Stats. Output Stream: stat_FeT
(PID.TID 0000.0001) Output Frequency:       1200.000000 ; Phase:           0.000000
(PID.TID 0000.0001)  Regions:   0
(PID.TID 0000.0001)  Fields:    TRAC03
(PID.TID 0000.0001) Creating Stats. Output Stream: stat_Diver1
(PID.TID 0000.0001) Output Frequency:       1200.000000 ; Phase:           0.000000
(PID.TID 0000.0001)  Regions:   0
(PID.TID 0000.0001)  Fields:    Diver1
(PID.TID 0000.0001) Creating Stats. Output Stream: stat_Diver2
(PID.TID 0000.0001) Output Frequency:       1200.000000 ; Phase:           0.000000
(PID.TID 0000.0001)  Regions:   0
(PID.TID 0000.0001)  Fields:    Diver2
(PID.TID 0000.0001) Creating Stats. Output Stream: stat_Diver3
(PID.TID 0000.0001) Output Frequency:       1200.000000 ; Phase:           0.000000
(PID.TID 0000.0001)  Regions:   0
(PID.TID 0000.0001)  Fields:    Diver3
(PID.TID 0000.0001) Creating Stats. Output Stream: stat_Diver4
(PID.TID 0000.0001) Output Frequency:       1200.000000 ; Phase:           0.000000
(PID.TID 0000.0001)  Regions:   0
(PID.TID 0000.0001)  Fields:    Diver4
(PID.TID 0000.0001) Creating Stats. Output Stream: stat_Shannon
(PID.TID 0000.0001) Output Frequency:       1200.000000 ; Phase:           0.000000
(PID.TID 0000.0001)  Regions:   0
(PID.TID 0000.0001)  Fields:    Shannon
(PID.TID 0000.0001) Creating Stats. Output Stream: stat_Simpson
(PID.TID 0000.0001) Output Frequency:       1200.000000 ; Phase:           0.000000
(PID.TID 0000.0001)  Regions:   0
(PID.TID 0000.0001)  Fields:    Simpson
(PID.TID 0000.0001) -----------------------------------------------------
(PID.TID 0000.0001) 
(PID.TID 0000.0001) SET_PARMS: done
(PID.TID 0000.0001) Enter INI_VERTICAL_GRID: setInterFDr=    T ; setCenterDr=    F
(PID.TID 0000.0001)  MDS_READ_FIELD: opening global file: LONC.bin
(PID.TID 0000.0001)  MDS_READ_FIELD: opening global file: LATC.bin
(PID.TID 0000.0001)  MDS_READ_FIELD: opening global file: DXF.bin
(PID.TID 0000.0001)  MDS_READ_FIELD: opening global file: DYF.bin
(PID.TID 0000.0001)  MDS_READ_FIELD: opening global file: RA.bin
(PID.TID 0000.0001)  MDS_READ_FIELD: opening global file: LONG.bin
(PID.TID 0000.0001)  MDS_READ_FIELD: opening global file: LATG.bin
(PID.TID 0000.0001)  MDS_READ_FIELD: opening global file: DXV.bin
(PID.TID 0000.0001)  MDS_READ_FIELD: opening global file: DYU.bin
(PID.TID 0000.0001)  MDS_READ_FIELD: opening global file: RAZ.bin
(PID.TID 0000.0001)  MDS_READ_FIELD: opening global file: DXC.bin
(PID.TID 0000.0001)  MDS_READ_FIELD: opening global file: DYC.bin
(PID.TID 0000.0001)  MDS_READ_FIELD: opening global file: RAW.bin
(PID.TID 0000.0001)  MDS_READ_FIELD: opening global file: RAS.bin
(PID.TID 0000.0001)  MDS_READ_FIELD: opening global file: DXG.bin
(PID.TID 0000.0001)  MDS_READ_FIELD: opening global file: DYG.bin
(PID.TID 0000.0001) %MON XC_max                       =   3.4323280334473E+01
(PID.TID 0000.0001) %MON XC_min                       =   6.2812995910645E+00
(PID.TID 0000.0001) %MON XC_mean                      =   1.8285267813948E+01
(PID.TID 0000.0001) %MON XC_sd                        =   6.3900599945909E+00
(PID.TID 0000.0001) %MON XG_max                       =   3.4363361358643E+01
(PID.TID 0000.0001) %MON XG_min                       =   6.3874454498291E+00
(PID.TID 0000.0001) %MON XG_mean                      =   1.8373648876945E+01
(PID.TID 0000.0001) %MON XG_sd                        =   6.3700484752252E+00
(PID.TID 0000.0001) %MON DXC_max                      =   2.2403076171875E+04
(PID.TID 0000.0001) %MON DXC_min                      =   1.8505916015625E+04
(PID.TID 0000.0001) %MON DXC_mean                     =   2.0203672926875E+04
(PID.TID 0000.0001) %MON DXC_sd                       =   9.5458170268745E+02
(PID.TID 0000.0001) %MON DXF_max                      =   2.2370343750000E+04
(PID.TID 0000.0001) %MON DXF_min                      =   1.8493386718750E+04
(PID.TID 0000.0001) %MON DXF_mean                     =   2.0182404881528E+04
(PID.TID 0000.0001) %MON DXF_sd                       =   9.4946222069420E+02
(PID.TID 0000.0001) %MON DXG_max                      =   2.2367550781250E+04
(PID.TID 0000.0001) %MON DXG_min                      =   1.8487599609375E+04
(PID.TID 0000.0001) %MON DXG_mean                     =   2.0177259786684E+04
(PID.TID 0000.0001) %MON DXG_sd                       =   9.4896516606818E+02
(PID.TID 0000.0001) %MON DXV_max                      =   2.2400273437500E+04
(PID.TID 0000.0001) %MON DXV_min                      =   1.8500103515625E+04
(PID.TID 0000.0001) %MON DXV_mean                     =   2.0198506532189E+04
(PID.TID 0000.0001) %MON DXV_sd                       =   9.5408286863332E+02
(PID.TID 0000.0001) %MON YC_max                       =   6.7494171142578E+01
(PID.TID 0000.0001) %MON YC_min                       =   5.1496150970459E+01
(PID.TID 0000.0001) %MON YC_mean                      =   5.9557142692700E+01
(PID.TID 0000.0001) %MON YC_sd                        =   3.8956559034090E+00
(PID.TID 0000.0001) %MON YG_max                       =   6.7396972656250E+01
(PID.TID 0000.0001) %MON YG_min                       =   5.1380382537842E+01
(PID.TID 0000.0001) %MON YG_mean                      =   5.9448751095443E+01
(PID.TID 0000.0001) %MON YG_sd                        =   3.8981480636126E+00
(PID.TID 0000.0001) %MON DYC_max                      =   1.7253792968750E+04
(PID.TID 0000.0001) %MON DYC_min                      =   1.6167729492188E+04
(PID.TID 0000.0001) %MON DYC_mean                     =   1.6590043869643E+04
(PID.TID 0000.0001) %MON DYC_sd                       =   2.2883025615363E+02
(PID.TID 0000.0001) %MON DYF_max                      =   1.7247535156250E+04
(PID.TID 0000.0001) %MON DYF_min                      =   1.6166898437500E+04
(PID.TID 0000.0001) %MON DYF_mean                     =   1.6587223710623E+04
(PID.TID 0000.0001) %MON DYF_sd                       =   2.2779671061985E+02
(PID.TID 0000.0001) %MON DYG_max                      =   1.7242103515625E+04
(PID.TID 0000.0001) %MON DYG_min                      =   1.6164107421875E+04
(PID.TID 0000.0001) %MON DYG_mean                     =   1.6582914334660E+04
(PID.TID 0000.0001) %MON DYG_sd                       =   2.2730275857504E+02
(PID.TID 0000.0001) %MON DYU_max                      =   1.7248339843750E+04
(PID.TID 0000.0001) %MON DYU_min                      =   1.6164934570313E+04
(PID.TID 0000.0001) %MON DYU_mean                     =   1.6585720694380E+04
(PID.TID 0000.0001) %MON DYU_sd                       =   2.2833267244082E+02
(PID.TID 0000.0001) %MON RA_max                       =   3.6165907200000E+08
(PID.TID 0000.0001) %MON RA_min                       =   3.1759747200000E+08
(PID.TID 0000.0001) %MON RA_mean                      =   3.3456872125731E+08
(PID.TID 0000.0001) %MON RA_sd                        =   1.1547923169063E+07
(PID.TID 0000.0001) %MON RAW_max                      =   3.6212576000000E+08
(PID.TID 0000.0001) %MON RAW_min                      =   3.1777328000000E+08
(PID.TID 0000.0001) %MON RAW_mean                     =   3.3483373194737E+08
(PID.TID 0000.0001) %MON RAW_sd                       =   1.1630830944481E+07
(PID.TID 0000.0001) %MON RAS_max                      =   3.6163251200000E+08
(PID.TID 0000.0001) %MON RAS_min                      =   3.1760160000000E+08
(PID.TID 0000.0001) %MON RAS_mean                     =   3.3453950318129E+08
(PID.TID 0000.0001) %MON RAS_sd                       =   1.1525868078589E+07
(PID.TID 0000.0001) %MON RAZ_max                      =   3.6209897600000E+08
(PID.TID 0000.0001) %MON RAZ_min                      =   3.1777724800000E+08
(PID.TID 0000.0001) %MON RAZ_mean                     =   3.3480396163743E+08
(PID.TID 0000.0001) %MON RAZ_sd                       =   1.1608759740398E+07
(PID.TID 0000.0001) %MON AngleCS_max                  =   5.5429527386920E-01
(PID.TID 0000.0001) %MON AngleCS_min                  =  -9.9944725063759E-01
(PID.TID 0000.0001) %MON AngleCS_mean                 =   2.7438028807017E-01
(PID.TID 0000.0001) %MON AngleCS_sd                   =   1.8420475006332E-01
(PID.TID 0000.0001) %MON AngleSN_max                  =   9.9515176606236E-01
(PID.TID 0000.0001) %MON AngleSN_min                  =  -9.9999853122241E-01
(PID.TID 0000.0001) %MON AngleSN_mean                 =   9.1101249395656E-01
(PID.TID 0000.0001) %MON AngleSN_sd                   =   2.4665827257097E-01
(PID.TID 0000.0001)  MDS_READ_FIELD: opening global file: ETOPO2_76x72_baltic_corr
(PID.TID 0000.0001) // =======================================================
(PID.TID 0000.0001) // Field Model R_low (ini_masks_etc)
(PID.TID 0000.0001) // CMIN =         -5.632600000000000E+02
(PID.TID 0000.0001) // CMAX =          0.000000000000000E+00
(PID.TID 0000.0001) // CINT =          2.086148148148148E+01
(PID.TID 0000.0001) // SYMBOLS (CMIN->CMAX): -abcdefghijklmnopqrstuvwxyz+
(PID.TID 0000.0001) //                  0.0: .
(PID.TID 0000.0001) // RANGE I (Lo:Hi:Step):(    -3:    80:     1)
(PID.TID 0000.0001) // RANGE J (Lo:Hi:Step):(    76:    -3:    -1)
(PID.TID 0000.0001) // RANGE K (Lo:Hi:Step):(   1:   1:   1)
(PID.TID 0000.0001) // =======================================================
(PID.TID 0000.0001) K =   1
(PID.TID 0000.0001) //                I=6       I=16      I=26      I=36      I=38      I=48      I=58      I=68      I=78
(PID.TID 0000.0001) // |--J--|321012345|789012345|789012345|789012345|789012567|901234567|901234567|901234567|901234567|90
(PID.TID 0000.0001) //     76 .............................................................+++............................
(PID.TID 0000.0001) //     75 ...............................................................+............................
(PID.TID 0000.0001) //     74 ...............................................................++...........................
(PID.TID 0000.0001) //     73 ............................................................................................
(PID.TID 0000.0001) //     72 ....zzyyyyyyzzzzzyyzzywrnl..............................................................zzyy
(PID.TID 0000.0001) //     71 ....zzyyyyyyzzzzzyyzzywrll..............................................................zzyy
(PID.TID 0000.0001) //     70 ....zzyyyzzzzzzzzzzzzywrlf..............................................................zzyy
(PID.TID 0000.0001) //     69 ....zzyyyzzzzzzzzzzzyyxtlfv.............................................................zzyy
(PID.TID 0000.0001) //     68 ....+zyyzzzzzzzzzzzzzzyupfp.............................................................+zyy
(PID.TID 0000.0001) //     67 ....+zyzzzzzzzzzzzz++zzxrffu............................................................+zyz
(PID.TID 0000.0001) //     66 ....+zyzzzzzzz++...+..zyvlciu...........................................................+zyz
(PID.TID 0000.0001) //     65 ....+zzzzz+zz+........zzyscbirz.........................................................+zzz
(PID.TID 0000.0001) //     64 ....zzzzz++++.........+zzvnb-fqz........................................................zzzz
(PID.TID 0000.0001) //     63 ....++zz+++............+zxui--lw........................................................++zz
(PID.TID 0000.0001) //     62 .....+z+................+zwqffpv+........................................................+z+
(PID.TID 0000.0001) //     61 .....+...................+xsllswz++......................................................+..
(PID.TID 0000.0001) //     60 ..........................xuprvyyz..........................................................
(PID.TID 0000.0001) //     59 ...............+.....++..+wurwyz+...........................................................
(PID.TID 0000.0001) //     58 ..........++...+++..++zz++vuuz..............................................................
(PID.TID 0000.0001) //     57 .........zz+...+++..++z+++yxz...............................................................
(PID.TID 0000.0001) //     56 .........zz+...+++++++zz++++................................................................
(PID.TID 0000.0001) //     55 .........+zzz+++++++++zzz+..................................................................
(PID.TID 0000.0001) //     54 .........+z+zz...++++zyyz...................................................................
(PID.TID 0000.0001) //     53 .......+z++.++...++++zyy...................................................................+
(PID.TID 0000.0001) //     52 .......+zz+.++...+++zyy....................................................................+
(PID.TID 0000.0001) //     51 ........+z+........zyy+.....................................................................
(PID.TID 0000.0001) //     50 .........zzz.+.+...zzz......................................................................
(PID.TID 0000.0001) //     49 .........zzzz+z+.+..........................................................................
(PID.TID 0000.0001) //     48 ..........+zzzz+++..........................................................................
(PID.TID 0000.0001) //     47 ..........+zzz+.............................................................................
(PID.TID 0000.0001) //     46 ..........+zz++.............................................................................
(PID.TID 0000.0001) //     45 ...........++zz+............................................................................
(PID.TID 0000.0001) //     44 ............+yyy............................................................................
(PID.TID 0000.0001) //     43 ..........++++yy..+...........................................+z............................
(PID.TID 0000.0001) //     42 .........++++ywzzzz+....................................++z++wtuvz+.........................
(PID.TID 0000.0001) //     41 ........+++zxwwzzyyz+..................................++zxyytnnpuuuz.......................
(PID.TID 0000.0001) //     40 ........+++yxxz.yxyzz.................................zxyywvwupnnppqwx+.....................
(PID.TID 0000.0001) //     39 ........++zyyxy.xxyyz.................................zwwwvvwzvsrpnnquyz....................
(PID.TID 0000.0001) //     38 ..........zzyxxwwwxy+.............+...................+zxwvvw+zywspnnswz+......zz++.........
(PID.TID 0000.0001) //     37 ..........zyywwvvwxyzz++.....+zz+zz+.........+.......+++zxwvvxz+zvpnnqvy+++z..zxxzz+........
(PID.TID 0000.0001) //     36 z+.........yxwwvvwwxyz+....+zyxwxxyz.........+.......+++zyvvvvwz+zuqqvz++zxxxywwwyzzz+......
(PID.TID 0000.0001) //     35 xz.........zxxwwvwwxyyzzyzz+zxvvvvwz++......+z......+z++zzvwwtuz++zyy++++yyyvvvwwxyxxz......
(PID.TID 0000.0001) //     34 xz+.........yxxxwxxxyyyxxwxxyxwuuuvuvz.....yyz.....yyz++zzwwutty++++....+yyywwwwwxxxxz+.....
(PID.TID 0000.0001) //     33 zz+.........+zyyxwyyyyzyxwwwwwxwwwvssy+++++yy.+++++yy.++zzyxwuuy+++.....++++yxxxxxxyzz+.....
(PID.TID 0000.0001) //     40 ........+++yxxz.yxyzz.................................zxyywvwupnnppqwx+.....................
(PID.TID 0000.0001) //     39 ........++zyyxy.xxyyz.................................zwwwvvwzvsrpnnquyz....................
(PID.TID 0000.0001) //     38 ..........zzyxxwwwxy+.............+...................+zxwvvw+zywspnnswz+......zz++.........
(PID.TID 0000.0001) //     37 ..........zyywwvvwxyzz++.....+zz+zz+.........+.......+++zxwvvxz+zvpnnqvy+++z..zxxzz+........
(PID.TID 0000.0001) //     36 z+.........yxwwvvwwxyz+....+zyxwxxyz.........+.......+++zyvvvvwz+zuqqvz++zxxxywwwyzzz+......
(PID.TID 0000.0001) //     35 xz.........zxxwwvwwxyyzzyzz+zxvvvvwz++......+z......+z++zzvwwtuz++zyy++++yyyvvvwwxyxxz......
(PID.TID 0000.0001) //     34 xz+.........yxxxwxxxyyyxxwxxyxwuuuvuvz.....yyz.....yyz++zzwwutty++++....+yyywwwwwxxxxz+.....
(PID.TID 0000.0001) //     33 zz+.........+zyyxwyyyyzyxwwwwwxwwwvssy+++++yy.+++++yy.++zzyxwuuy+++.....++++yxxxxxxyzz+.....
(PID.TID 0000.0001) //     32 z++...........yyywxzyyzzyxxxzz+yxxvtswyzz+zyy.yzz+zyy..+++zzzyvz++..........+zyyxxzzz++.....
(PID.TID 0000.0001) //     31 +++...........zyywxzyyyyyyz+....zwvvwvwxyzzyz.wxyzzyz..+++++++y+.............+zzzzz++++.....
(PID.TID 0000.0001) //     30 +++............zyxwxxxxyzzz+....+xyzyvvwxyzy+.vwxyzy+.+++++++.....................+.+++.....
(PID.TID 0000.0001) //     29 ...............+yxwxxxxyzzzyyzzz+zxwwvvvxyzz++vvxyzz++++++..................................
(PID.TID 0000.0001) //     28 ................zywwwwvvwxwuvvxxxwtvvvuuwxzz++uuwxzz+++.....................................
(PID.TID 0000.0001) //     27 ................+ywwvvuvvutsstvwvttvvvuuvwyz++uuvwyz++++....................................
(PID.TID 0000.0001) //     26 ................+ywwwvuuuuutstuuutuwvvvuuwwy++vuuwwy++......................................
(PID.TID 0000.0001) //     25 ................zwwwwwwvuuttsrrrtuvwwvwvuuvx++wvuuvx+++.....................................
(PID.TID 0000.0001) //     24 ...............yywwwwwxxwvutssssuvwwxwwwwuvyz+wwwuvyz++.....................................
(PID.TID 0000.0001) //     23 ..............+xwwwwwwwxxwvuuvvwxxwxyxxxxwvwy+xxxwvwy++.....................................
(PID.TID 0000.0001) //     22 ..............+xwwwwwwwxyyxwwwxxxyxxyzzyzzxwxzzyzzxwxz+.....................................
(PID.TID 0000.0001) //     21 ...............yxyyxxxxxyyyyxyyyyyyyz..yz+ywwy.yz+ywwy+.....................................
(PID.TID 0000.0001) //     20 ................z+.yyyxyyz+...+..+zz+...+.+xwx..+.+xwxz.....................................
(PID.TID 0000.0001) //     19 ...................zzzyyz.........+zz+..+.+zxx..+.+zxxy+....................................
(PID.TID 0000.0001) //     18 ...................++zz+...........zz+...+++zx...+++zxxz+...................................
(PID.TID 0000.0001) //     17 ...................+++.............zzzz+++...yz+++...yxyz...................................
(PID.TID 0000.0001) //     16 ...................++.............zyzyyz+.....yz+.....zyz++.................................
(PID.TID 0000.0001) //     15 ..................................yyzyyz......yz.......zzz+.................................
(PID.TID 0000.0001) //     14 .................................zyyyyz+......z+........++++................................
(PID.TID 0000.0001) //     13 .................................yyyyyzz+.....zz+.......+++++...............................
(PID.TID 0000.0001) //     12 .................................yyyz+...................+++++..............................
(PID.TID 0000.0001) //     11 .................................zz+.....................+++++..............................
(PID.TID 0000.0001) //     10 .........................................................++++++.............................
(PID.TID 0000.0001) //      9 .........................................................+z++++.............................
(PID.TID 0000.0001) //      8 .........................................................+zyy+++............................
(PID.TID 0000.0001) //      7 ..........................................................zyy++++...........................
(PID.TID 0000.0001) //      6 ..........................................................z+.+++............................
(PID.TID 0000.0001) //      5 ............................................................++++............................
(PID.TID 0000.0001) //      4 .............................................................+++............................
(PID.TID 0000.0001) //      3 ...............................................................+............................
(PID.TID 0000.0001) //      2 ...............................................................++...........................
(PID.TID 0000.0001) //      1 ............................................................................................
(PID.TID 0000.0001) //      0 ....zzyyyyyyzzzzzyyzzywrnl..............................................................zzyy
(PID.TID 0000.0001) //     -1 ....zzyyyyyyzzzzzyyzzywrll..............................................................zzyy
(PID.TID 0000.0001) //     -2 ....zzyyyzzzzzzzzzzzzywrlf..............................................................zzyy
(PID.TID 0000.0001) //     -3 ....zzyyyzzzzzzzzzzzyyxtlfv.............................................................zzyy
(PID.TID 0000.0001) // =======================================================
(PID.TID 0000.0001) // END OF FIELD                                          =
(PID.TID 0000.0001) // =======================================================
(PID.TID 0000.0001) 
(PID.TID 0000.0001) // =======================================================
(PID.TID 0000.0001) // Field Model Ro_surf (ini_masks_etc)
(PID.TID 0000.0001) // CMIN =         -8.526512829121202E-14
(PID.TID 0000.0001) // CMAX =          2.842170943040401E-14
(PID.TID 0000.0001) // CINT =          4.210623619319112E-15
(PID.TID 0000.0001) // SYMBOLS (CMIN->CMAX): -abcdefghijklmnopqrstuvwxyz+
(PID.TID 0000.0001) //                  0.0: .
(PID.TID 0000.0001) // RANGE I (Lo:Hi:Step):(    -3:    80:     1)
(PID.TID 0000.0001) // RANGE J (Lo:Hi:Step):(    76:    -3:    -1)
(PID.TID 0000.0001) // RANGE K (Lo:Hi:Step):(   1:   1:   1)
(PID.TID 0000.0001) // =======================================================
(PID.TID 0000.0001) K =   1
(PID.TID 0000.0001) //                I=6       I=16      I=26      I=36      I=38      I=48      I=58      I=68      I=78
(PID.TID 0000.0001) // |--J--|321012345|789012345|789012345|789012345|789012567|901234567|901234567|901234567|901234567|90
(PID.TID 0000.0001) //     76 ............................................................................................
(PID.TID 0000.0001) //     75 ............................................................................................
(PID.TID 0000.0001) //     74 ............................................................................................
(PID.TID 0000.0001) //     73 ............................................................................................
(PID.TID 0000.0001) //     72 ......................xn++..................................................................
(PID.TID 0000.0001) //     71 ......................xn++..................................................................
(PID.TID 0000.0001) //     70 ......................xn+n..................................................................
(PID.TID 0000.0001) //     69 ........................+n..................................................................
(PID.TID 0000.0001) //     68 ........................gng.................................................................
(PID.TID 0000.0001) //     67 ........................nnn.................................................................
(PID.TID 0000.0001) //     66 .........................+-+................................................................
(PID.TID 0000.0001) //     65 .........................n-n+n..............................................................
(PID.TID 0000.0001) //     64 ..........................+nnnn.............................................................
(PID.TID 0000.0001) //     63 ...........................+nn+x............................................................
(PID.TID 0000.0001) //     62 ..........................xnnng.............................................................
(PID.TID 0000.0001) //     61 ...........................n++nx............................................................
(PID.TID 0000.0001) //     60 ............................gn..............................................................
(PID.TID 0000.0001) //     59 ..........................x.nx..............................................................
(PID.TID 0000.0001) //     58 ............................................................................................
(PID.TID 0000.0001) //     57 ............................................................................................
(PID.TID 0000.0001) //     56 ............................................................................................
(PID.TID 0000.0001) //     55 ............................................................................................
(PID.TID 0000.0001) //     54 ............................................................................................
(PID.TID 0000.0001) //     53 ............................................................................................
(PID.TID 0000.0001) //     52 ............................................................................................
(PID.TID 0000.0001) //     51 ............................................................................................
(PID.TID 0000.0001) //     50 ............................................................................................
(PID.TID 0000.0001) //     49 ............................................................................................
(PID.TID 0000.0001) //     48 ............................................................................................
(PID.TID 0000.0001) //     47 ............................................................................................
(PID.TID 0000.0001) //     46 ............................................................................................
(PID.TID 0000.0001) //     45 ............................................................................................
(PID.TID 0000.0001) //     44 ............................................................................................
(PID.TID 0000.0001) //     43 ............................................................................................
(PID.TID 0000.0001) //     42 ..............x..............................................x..............................
(PID.TID 0000.0001) //     41 .............xx...............................................++g...........................
(PID.TID 0000.0001) //     40 ..........................................................x.x.g++ggnx.......................
(PID.TID 0000.0001) //     39 .......................................................xxx..x..nng++n.......................
(PID.TID 0000.0001) //     38 ...............xxx.......................................x..x...xng++nx.....................
(PID.TID 0000.0001) //     37 .............xx..x........................................x.......g++n......................
(PID.TID 0000.0001) //     36 .............xx..xx............x..............................x....nn.........xxx...........
(PID.TID 0000.0001) //     35 ..............xx.xx...............x........................xx..................xx...........
(PID.TID 0000.0001) //     34 ................x........x....x...........................xx................xxxxx...........
(PID.TID 0000.0001) //     33 .................x.......xxxxx.xxx.nn.......................x...............................
(PID.TID 0000.0001) //     40 ..........................................................x.x.g++ggnx.......................
(PID.TID 0000.0001) //     39 .......................................................xxx..x..nng++n.......................
(PID.TID 0000.0001) //     38 ...............xxx.......................................x..x...xng++nx.....................
(PID.TID 0000.0001) //     37 .............xx..x........................................x.......g++n......................
(PID.TID 0000.0001) //     36 .............xx..xx............x..............................x....nn.........xxx...........
(PID.TID 0000.0001) //     35 ..............xx.xx...............x........................xx..................xx...........
(PID.TID 0000.0001) //     34 ................x........x....x...........................xx................xxxxx...........
(PID.TID 0000.0001) //     33 .................x.......xxxxx.xxx.nn.......................x...............................
(PID.TID 0000.0001) //     32 .................x..................nx......................................................
(PID.TID 0000.0001) //     31 .................x...............x..x.x.......x.............................................
(PID.TID 0000.0001) //     30 ..................x....................x.......x............................................
(PID.TID 0000.0001) //     29 ..................x................xx.......................................................
(PID.TID 0000.0001) //     28 ..................xxxx..x.x......x......x.......x...........................................
(PID.TID 0000.0001) //     27 ..................xx.......nn..x.........x.......x..........................................
(PID.TID 0000.0001) //     26 ..................xxx.......n......x.....xx......xx.........................................
(PID.TID 0000.0001) //     25 .................xxxxxx.....nnnn...xx.x.......x.............................................
(PID.TID 0000.0001) //     24 .................xxxxx..x...nnnn..xx.xxxx.....xxx...........................................
(PID.TID 0000.0001) //     23 ................xxxxxxx..x.....x..x......x.x.....x.x........................................
(PID.TID 0000.0001) //     22 ................xxxxxxx....xxx.............x.......x........................................
(PID.TID 0000.0001) //     21 ...........................................xx......xx.......................................
(PID.TID 0000.0001) //     20 ............................................x.......x.......................................
(PID.TID 0000.0001) //     19 ............................................................................................
(PID.TID 0000.0001) //     18 ............................................................................................
(PID.TID 0000.0001) //     17 ............................................................................................
(PID.TID 0000.0001) //     16 ............................................................................................
(PID.TID 0000.0001) //     15 ............................................................................................
(PID.TID 0000.0001) //     14 ............................................................................................
(PID.TID 0000.0001) //     13 ............................................................................................
(PID.TID 0000.0001) //     12 ............................................................................................
(PID.TID 0000.0001) //     11 ............................................................................................
(PID.TID 0000.0001) //     10 ............................................................................................
(PID.TID 0000.0001) //      9 ............................................................................................
(PID.TID 0000.0001) //      8 ............................................................................................
(PID.TID 0000.0001) //      7 ............................................................................................
(PID.TID 0000.0001) //      6 ............................................................................................
(PID.TID 0000.0001) //      5 ............................................................................................
(PID.TID 0000.0001) //      4 ............................................................................................
(PID.TID 0000.0001) //      3 ............................................................................................
(PID.TID 0000.0001) //      2 ............................................................................................
(PID.TID 0000.0001) //      1 ............................................................................................
(PID.TID 0000.0001) //      0 ......................xn++..................................................................
(PID.TID 0000.0001) //     -1 ......................xn++..................................................................
(PID.TID 0000.0001) //     -2 ......................xn+n..................................................................
(PID.TID 0000.0001) //     -3 ........................+n..................................................................
(PID.TID 0000.0001) // =======================================================
(PID.TID 0000.0001) // END OF FIELD                                          =
(PID.TID 0000.0001) // =======================================================
(PID.TID 0000.0001) 
(PID.TID 0000.0001) // =======================================================
(PID.TID 0000.0001) // Field hFacC at iteration          0
(PID.TID 0000.0001) // CMIN =          0.000000000000000E+00
(PID.TID 0000.0001) // CMAX =          1.000000000000000E+00
(PID.TID 0000.0001) // CINT =          3.703703703703703E-02
(PID.TID 0000.0001) // SYMBOLS (CMIN->CMAX): -abcdefghijklmnopqrstuvwxyz+
(PID.TID 0000.0001) //                  0.0: .
(PID.TID 0000.0001) // RANGE I (Lo:Hi:Step):(    -3:    80:     1)
(PID.TID 0000.0001) // RANGE J (Lo:Hi:Step):(    76:    -3:    -1)
(PID.TID 0000.0001) // RANGE K (Lo:Hi:Step):(   1:   1:   1)
(PID.TID 0000.0001) // =======================================================
(PID.TID 0000.0001) K =   1
(PID.TID 0000.0001) //                I=6       I=16      I=26      I=36      I=38      I=48      I=58      I=68      I=78
(PID.TID 0000.0001) // |--J--|321012345|789012345|789012345|789012345|789012567|901234567|901234567|901234567|901234567|90
(PID.TID 0000.0001) //     76 .............................................................+++............................
(PID.TID 0000.0001) //     75 ...............................................................+............................
(PID.TID 0000.0001) //     74 ...............................................................++...........................
(PID.TID 0000.0001) //     73 ............................................................................................
(PID.TID 0000.0001) //     72 ....++++++++++++++++++++++..............................................................++++
(PID.TID 0000.0001) //     71 ....++++++++++++++++++++++..............................................................++++
(PID.TID 0000.0001) //     70 ....++++++++++++++++++++++..............................................................++++
(PID.TID 0000.0001) //     69 ....+++++++++++++++++++++++.............................................................++++
(PID.TID 0000.0001) //     68 ....+++++++++++++++++++++++.............................................................++++
(PID.TID 0000.0001) //     67 ....++++++++++++++++++++++++............................................................++++
(PID.TID 0000.0001) //     66 ....++++++++++++...+..+++++++...........................................................++++
(PID.TID 0000.0001) //     65 ....++++++++++........+++++++++.........................................................++++
(PID.TID 0000.0001) //     64 ....+++++++++.........++++++++++........................................................++++
(PID.TID 0000.0001) //     63 ....+++++++............+++++++++........................................................++++
(PID.TID 0000.0001) //     62 .....+++................+++++++++........................................................+++
(PID.TID 0000.0001) //     61 .....+...................++++++++++......................................................+..
(PID.TID 0000.0001) //     60 ..........................++++++++..........................................................
(PID.TID 0000.0001) //     59 ...............+.....++..++++++++...........................................................
(PID.TID 0000.0001) //     58 ..........++...+++..++++++++++..............................................................
(PID.TID 0000.0001) //     57 .........+++...+++..+++++++++...............................................................
(PID.TID 0000.0001) //     56 .........+++...+++++++++++++................................................................
(PID.TID 0000.0001) //     55 .........+++++++++++++++++..................................................................
(PID.TID 0000.0001) //     54 .........+++++...++++++++...................................................................
(PID.TID 0000.0001) //     53 .......++++.++...+++++++...................................................................+
(PID.TID 0000.0001) //     52 .......++++.++...++++++....................................................................+
(PID.TID 0000.0001) //     51 ........+++........++++.....................................................................
(PID.TID 0000.0001) //     50 .........+++.+.+...+++......................................................................
(PID.TID 0000.0001) //     49 .........+++++++.+..........................................................................
(PID.TID 0000.0001) //     48 ..........++++++++..........................................................................
(PID.TID 0000.0001) //     47 ..........+++++.............................................................................
(PID.TID 0000.0001) //     46 ..........+++++.............................................................................
(PID.TID 0000.0001) //     45 ...........+++++............................................................................
(PID.TID 0000.0001) //     44 ............++++............................................................................
(PID.TID 0000.0001) //     43 ..........++++++..+...........................................++............................
(PID.TID 0000.0001) //     42 .........+++++++++++....................................+++++++++++.........................
(PID.TID 0000.0001) //     41 ........+++++++++++++..................................++++++++++++++.......................
(PID.TID 0000.0001) //     40 ........+++++++.+++++.................................+++++++++++++++++.....................
(PID.TID 0000.0001) //     39 ........+++++++.+++++.................................++++++++++++++++++....................
(PID.TID 0000.0001) //     38 ..........+++++++++++.............+...................+++++++++++++++++++......++++.........
(PID.TID 0000.0001) //     37 ..........++++++++++++++.....+++++++.........+.......+++++++++++++++++++++++..++++++........
(PID.TID 0000.0001) //     36 ++.........++++++++++++....+++++++++.........+.......+++++++++++++++++++++++++++++++++......
(PID.TID 0000.0001) //     35 ++.........+++++++++++++++++++++++++++......++......++++++++++++++++++++++++++++++++++......
(PID.TID 0000.0001) //     34 +++.........++++++++++++++++++++++++++.....+++.....+++++++++++++++++....+++++++++++++++.....
(PID.TID 0000.0001) //     33 +++.........+++++++++++++++++++++++++++++++++.+++++++.+++++++++++++.....+++++++++++++++.....
(PID.TID 0000.0001) //     40 ........+++++++.+++++.................................+++++++++++++++++.....................
(PID.TID 0000.0001) //     39 ........+++++++.+++++.................................++++++++++++++++++....................
(PID.TID 0000.0001) //     38 ..........+++++++++++.............+...................+++++++++++++++++++......++++.........
(PID.TID 0000.0001) //     37 ..........++++++++++++++.....+++++++.........+.......+++++++++++++++++++++++..++++++........
(PID.TID 0000.0001) //     36 ++.........++++++++++++....+++++++++.........+.......+++++++++++++++++++++++++++++++++......
(PID.TID 0000.0001) //     35 ++.........+++++++++++++++++++++++++++......++......++++++++++++++++++++++++++++++++++......
(PID.TID 0000.0001) //     34 +++.........++++++++++++++++++++++++++.....+++.....+++++++++++++++++....+++++++++++++++.....
(PID.TID 0000.0001) //     33 +++.........+++++++++++++++++++++++++++++++++.+++++++.+++++++++++++.....+++++++++++++++.....
(PID.TID 0000.0001) //     32 +++...........+++++++++++++++++++++++++++++++.+++++++..+++++++++++..........+++++++++++.....
(PID.TID 0000.0001) //     31 +++...........++++++++++++++....+++++++++++++.+++++++..+++++++++.............++++++++++.....
(PID.TID 0000.0001) //     30 +++............+++++++++++++....+++++++++++++.+++++++.+++++++.....................+.+++.....
(PID.TID 0000.0001) //     29 ...............+++++++++++++++++++++++++++++++++++++++++++..................................
(PID.TID 0000.0001) //     28 ................+++++++++++++++++++++++++++++++++++++++.....................................
(PID.TID 0000.0001) //     27 ................++++++++++++++++++++++++++++++++++++++++....................................
(PID.TID 0000.0001) //     26 ................++++++++++++++++++++++++++++++++++++++......................................
(PID.TID 0000.0001) //     25 ................+++++++++++++++++++++++++++++++++++++++.....................................
(PID.TID 0000.0001) //     24 ...............++++++++++++++++++++++++++++++++++++++++.....................................
(PID.TID 0000.0001) //     23 ..............+++++++++++++++++++++++++++++++++++++++++.....................................
(PID.TID 0000.0001) //     22 ..............+++++++++++++++++++++++++++++++++++++++++.....................................
(PID.TID 0000.0001) //     21 ...............++++++++++++++++++++++..+++++++.++++++++.....................................
(PID.TID 0000.0001) //     20 ................++.++++++++...+..++++...+.++++..+.+++++.....................................
(PID.TID 0000.0001) //     19 ...................++++++.........++++..+.++++..+.++++++....................................
(PID.TID 0000.0001) //     18 ...................+++++...........+++...+++++...++++++++...................................
(PID.TID 0000.0001) //     17 ...................+++.............+++++++...+++++...++++...................................
(PID.TID 0000.0001) //     16 ...................++.............+++++++.....+++.....+++++.................................
(PID.TID 0000.0001) //     15 ..................................++++++......++.......++++.................................
(PID.TID 0000.0001) //     14 .................................+++++++......++........++++................................
(PID.TID 0000.0001) //     13 .................................++++++++.....+++.......+++++...............................
(PID.TID 0000.0001) //     12 .................................+++++...................+++++..............................
(PID.TID 0000.0001) //     11 .................................+++.....................+++++..............................
(PID.TID 0000.0001) //     10 .........................................................++++++.............................
(PID.TID 0000.0001) //      9 .........................................................++++++.............................
(PID.TID 0000.0001) //      8 .........................................................+++++++............................
(PID.TID 0000.0001) //      7 ..........................................................+++++++...........................
(PID.TID 0000.0001) //      6 ..........................................................++.+++............................
(PID.TID 0000.0001) //      5 ............................................................++++............................
(PID.TID 0000.0001) //      4 .............................................................+++............................
(PID.TID 0000.0001) //      3 ...............................................................+............................
(PID.TID 0000.0001) //      2 ...............................................................++...........................
(PID.TID 0000.0001) //      1 ............................................................................................
(PID.TID 0000.0001) //      0 ....++++++++++++++++++++++..............................................................++++
(PID.TID 0000.0001) //     -1 ....++++++++++++++++++++++..............................................................++++
(PID.TID 0000.0001) //     -2 ....++++++++++++++++++++++..............................................................++++
(PID.TID 0000.0001) //     -3 ....+++++++++++++++++++++++.............................................................++++
(PID.TID 0000.0001) // =======================================================
(PID.TID 0000.0001) // END OF FIELD                                          =
(PID.TID 0000.0001) // =======================================================
(PID.TID 0000.0001) 
(PID.TID 0000.0001) // =======================================================
(PID.TID 0000.0001) // Field hFacW at iteration          0
(PID.TID 0000.0001) // CMIN =          0.000000000000000E+00
(PID.TID 0000.0001) // CMAX =          1.000000000000000E+00
(PID.TID 0000.0001) // CINT =          3.703703703703703E-02
(PID.TID 0000.0001) // SYMBOLS (CMIN->CMAX): -abcdefghijklmnopqrstuvwxyz+
(PID.TID 0000.0001) //                  0.0: .
(PID.TID 0000.0001) // RANGE I (Lo:Hi:Step):(    -3:    80:     1)
(PID.TID 0000.0001) // RANGE J (Lo:Hi:Step):(    76:    -3:    -1)
(PID.TID 0000.0001) // RANGE K (Lo:Hi:Step):(   1:   1:   1)
(PID.TID 0000.0001) // =======================================================
(PID.TID 0000.0001) K =   1
(PID.TID 0000.0001) //                I=6       I=16      I=26      I=36      I=38      I=48      I=58      I=68      I=78
(PID.TID 0000.0001) // |--J--|321012345|789012345|789012345|789012345|789012567|901234567|901234567|901234567|901234567|90
(PID.TID 0000.0001) //     76 ..............................................................++............................
(PID.TID 0000.0001) //     75 ............................................................................................
(PID.TID 0000.0001) //     74 ................................................................+...........................
(PID.TID 0000.0001) //     73 ............................................................................................
(PID.TID 0000.0001) //     72 .....+++++++++++++++++++++...............................................................+++
(PID.TID 0000.0001) //     71 .....+++++++++++++++++++++...............................................................+++
(PID.TID 0000.0001) //     70 .....+++++++++++++++++++++...............................................................+++
(PID.TID 0000.0001) //     69 .....++++++++++++++++++++++..............................................................+++
(PID.TID 0000.0001) //     68 .....++++++++++++++++++++++..............................................................+++
(PID.TID 0000.0001) //     67 .....+++++++++++++++++++++++.............................................................+++
(PID.TID 0000.0001) //     66 .....+++++++++++.......++++++............................................................+++
(PID.TID 0000.0001) //     65 .....+++++++++.........++++++++..........................................................+++
(PID.TID 0000.0001) //     64 .....++++++++..........+++++++++.........................................................+++
(PID.TID 0000.0001) //     63 .....++++++.............++++++++.........................................................+++
(PID.TID 0000.0001) //     62 ......++.................++++++++.........................................................++
(PID.TID 0000.0001) //     61 ..........................+++++++++.........................................................
(PID.TID 0000.0001) //     60 ...........................+++++++..........................................................
(PID.TID 0000.0001) //     59 ......................+...+++++++...........................................................
(PID.TID 0000.0001) //     58 ...........+....++...+++++++++..............................................................
(PID.TID 0000.0001) //     57 ..........++....++...++++++++...............................................................
(PID.TID 0000.0001) //     56 ..........++....++++++++++++................................................................
(PID.TID 0000.0001) //     55 ..........++++++++++++++++..................................................................
(PID.TID 0000.0001) //     54 ..........++++....+++++++...................................................................
(PID.TID 0000.0001) //     53 ........+++..+....++++++....................................................................
(PID.TID 0000.0001) //     52 ........+++..+....+++++.....................................................................
(PID.TID 0000.0001) //     51 .........++.........+++.....................................................................
(PID.TID 0000.0001) //     50 ..........++........++......................................................................
(PID.TID 0000.0001) //     49 ..........++++++............................................................................
(PID.TID 0000.0001) //     48 ...........+++++++..........................................................................
(PID.TID 0000.0001) //     47 ...........++++.............................................................................
(PID.TID 0000.0001) //     46 ...........++++.............................................................................
(PID.TID 0000.0001) //     45 ............++++............................................................................
(PID.TID 0000.0001) //     44 .............+++............................................................................
(PID.TID 0000.0001) //     43 ...........+++++...............................................+............................
(PID.TID 0000.0001) //     42 ..........++++++++++.....................................++++++++++.........................
(PID.TID 0000.0001) //     41 .........++++++++++++...................................+++++++++++++.......................
(PID.TID 0000.0001) //     40 .........++++++..++++..................................++++++++++++++++.....................
(PID.TID 0000.0001) //     39 .........++++++..++++..................................+++++++++++++++++....................
(PID.TID 0000.0001) //     38 ...........++++++++++..................................++++++++++++++++++.......+++.........
(PID.TID 0000.0001) //     37 ...........+++++++++++++......++++++..................++++++++++++++++++++++...+++++........
(PID.TID 0000.0001) //     36 ++..........+++++++++++.....++++++++..................++++++++++++++++++++++++++++++++......
(PID.TID 0000.0001) //     35 ++..........++++++++++++++++++++++++++.......+.......+++++++++++++++++++++++++++++++++......
(PID.TID 0000.0001) //     34 +++..........+++++++++++++++++++++++++......++......++++++++++++++++.....++++++++++++++.....
(PID.TID 0000.0001) //     33 +++..........++++++++++++++++++++++++++++++++.+++++++..++++++++++++......++++++++++++++.....
(PID.TID 0000.0001) //     40 .........++++++..++++..................................++++++++++++++++.....................
(PID.TID 0000.0001) //     39 .........++++++..++++..................................+++++++++++++++++....................
(PID.TID 0000.0001) //     38 ...........++++++++++..................................++++++++++++++++++.......+++.........
(PID.TID 0000.0001) //     37 ...........+++++++++++++......++++++..................++++++++++++++++++++++...+++++........
(PID.TID 0000.0001) //     36 ++..........+++++++++++.....++++++++..................++++++++++++++++++++++++++++++++......
(PID.TID 0000.0001) //     35 ++..........++++++++++++++++++++++++++.......+.......+++++++++++++++++++++++++++++++++......
(PID.TID 0000.0001) //     34 +++..........+++++++++++++++++++++++++......++......++++++++++++++++.....++++++++++++++.....
(PID.TID 0000.0001) //     33 +++..........++++++++++++++++++++++++++++++++.+++++++..++++++++++++......++++++++++++++.....
(PID.TID 0000.0001) //     32 +++............++++++++++++++++++++++++++++++.+++++++...++++++++++...........++++++++++.....
(PID.TID 0000.0001) //     31 +++............+++++++++++++.....++++++++++++.+++++++...++++++++..............+++++++++.....
(PID.TID 0000.0001) //     30 .++.............++++++++++++.....++++++++++++.+++++++..++++++........................++.....
(PID.TID 0000.0001) //     29 ................++++++++++++++++++++++++++++++++++++++++++..................................
(PID.TID 0000.0001) //     28 .................++++++++++++++++++++++++++++++++++++++.....................................
(PID.TID 0000.0001) //     27 .................+++++++++++++++++++++++++++++++++++++++....................................
(PID.TID 0000.0001) //     26 .................+++++++++++++++++++++++++++++++++++++......................................
(PID.TID 0000.0001) //     25 .................++++++++++++++++++++++++++++++++++++++.....................................
(PID.TID 0000.0001) //     24 ................+++++++++++++++++++++++++++++++++++++++.....................................
(PID.TID 0000.0001) //     23 ...............++++++++++++++++++++++++++++++++++++++++.....................................
(PID.TID 0000.0001) //     22 ...............++++++++++++++++++++++++++++++++++++++++.....................................
(PID.TID 0000.0001) //     21 ................+++++++++++++++++++++...++++++..+++++++.....................................
(PID.TID 0000.0001) //     20 .................+..+++++++.......+++......+++.....++++.....................................
(PID.TID 0000.0001) //     19 ....................+++++..........+++.....+++.....+++++....................................
(PID.TID 0000.0001) //     18 ....................++++............++....++++....+++++++...................................
(PID.TID 0000.0001) //     17 ....................++..............++++++....++++....+++...................................
(PID.TID 0000.0001) //     16 ....................+..............++++++.....+++......++++.................................
(PID.TID 0000.0001) //     15 ...................................+++++......++........+++.................................
(PID.TID 0000.0001) //     14 ..................................++++++......++.........+++................................
(PID.TID 0000.0001) //     13 ..................................+++++++.....+++........++++...............................
(PID.TID 0000.0001) //     12 ..................................++++....................++++..............................
(PID.TID 0000.0001) //     11 ..................................++......................++++..............................
(PID.TID 0000.0001) //     10 ..........................................................+++++.............................
(PID.TID 0000.0001) //      9 ..........................................................+++++.............................
(PID.TID 0000.0001) //      8 ..........................................................++++++............................
(PID.TID 0000.0001) //      7 ...........................................................++++++...........................
(PID.TID 0000.0001) //      6 ...........................................................+..++............................
(PID.TID 0000.0001) //      5 .............................................................+++............................
(PID.TID 0000.0001) //      4 ..............................................................++............................
(PID.TID 0000.0001) //      3 ............................................................................................
(PID.TID 0000.0001) //      2 ................................................................+...........................
(PID.TID 0000.0001) //      1 ............................................................................................
(PID.TID 0000.0001) //      0 .....+++++++++++++++++++++...............................................................+++
(PID.TID 0000.0001) //     -1 .....+++++++++++++++++++++...............................................................+++
(PID.TID 0000.0001) //     -2 .....+++++++++++++++++++++...............................................................+++
(PID.TID 0000.0001) //     -3 .....++++++++++++++++++++++..............................................................+++
(PID.TID 0000.0001) // =======================================================
(PID.TID 0000.0001) // END OF FIELD                                          =
(PID.TID 0000.0001) // =======================================================
(PID.TID 0000.0001) 
(PID.TID 0000.0001) // =======================================================
(PID.TID 0000.0001) // Field hFacS at iteration          0
(PID.TID 0000.0001) // CMIN =          0.000000000000000E+00
(PID.TID 0000.0001) // CMAX =          1.000000000000000E+00
(PID.TID 0000.0001) // CINT =          3.703703703703703E-02
(PID.TID 0000.0001) // SYMBOLS (CMIN->CMAX): -abcdefghijklmnopqrstuvwxyz+
(PID.TID 0000.0001) //                  0.0: .
(PID.TID 0000.0001) // RANGE I (Lo:Hi:Step):(    -3:    80:     1)
(PID.TID 0000.0001) // RANGE J (Lo:Hi:Step):(    76:    -3:    -1)
(PID.TID 0000.0001) // RANGE K (Lo:Hi:Step):(   1:   1:   1)
(PID.TID 0000.0001) // =======================================================
(PID.TID 0000.0001) K =   1
(PID.TID 0000.0001) //                I=6       I=16      I=26      I=36      I=38      I=48      I=58      I=68      I=78
(PID.TID 0000.0001) // |--J--|321012345|789012345|789012345|789012345|789012567|901234567|901234567|901234567|901234567|90
(PID.TID 0000.0001) //     76 ...............................................................+............................
(PID.TID 0000.0001) //     75 ...............................................................+............................
(PID.TID 0000.0001) //     74 ............................................................................................
(PID.TID 0000.0001) //     73 ............................................................................................
(PID.TID 0000.0001) //     72 ....++++++++++++++++++++++..............................................................++++
(PID.TID 0000.0001) //     71 ....++++++++++++++++++++++..............................................................++++
(PID.TID 0000.0001) //     70 ....++++++++++++++++++++++..............................................................++++
(PID.TID 0000.0001) //     69 ....+++++++++++++++++++++++.............................................................++++
(PID.TID 0000.0001) //     68 ....+++++++++++++++++++++++.............................................................++++
(PID.TID 0000.0001) //     67 ....++++++++++++...+..++++++............................................................++++
(PID.TID 0000.0001) //     66 ....++++++++++........+++++++...........................................................++++
(PID.TID 0000.0001) //     65 ....+++++++++.........+++++++++.........................................................++++
(PID.TID 0000.0001) //     64 ....+++++++............+++++++++........................................................++++
(PID.TID 0000.0001) //     63 .....+++................++++++++.........................................................+++
(PID.TID 0000.0001) //     62 .....+...................++++++++........................................................+..
(PID.TID 0000.0001) //     61 ..........................++++++++..........................................................
(PID.TID 0000.0001) //     60 ..........................+++++++...........................................................
(PID.TID 0000.0001) //     59 ...............+.....++..+++++..............................................................
(PID.TID 0000.0001) //     58 ..........++...+++..+++++++++...............................................................
(PID.TID 0000.0001) //     57 .........+++...+++..++++++++................................................................
(PID.TID 0000.0001) //     56 .........+++...+++++++++++..................................................................
(PID.TID 0000.0001) //     55 .........+++++...++++++++...................................................................
(PID.TID 0000.0001) //     54 .........++.++...+++++++....................................................................
(PID.TID 0000.0001) //     53 .......++++.++...++++++....................................................................+
(PID.TID 0000.0001) //     52 ........+++........++++.....................................................................
(PID.TID 0000.0001) //     51 .........++........+++......................................................................
(PID.TID 0000.0001) //     50 .........+++.+.+............................................................................
(PID.TID 0000.0001) //     49 ..........++++++.+..........................................................................
(PID.TID 0000.0001) //     48 ..........+++++.............................................................................
(PID.TID 0000.0001) //     47 ..........+++++.............................................................................
(PID.TID 0000.0001) //     46 ...........++++.............................................................................
(PID.TID 0000.0001) //     45 ............++++............................................................................
(PID.TID 0000.0001) //     44 ............++++............................................................................
(PID.TID 0000.0001) //     43 ..........++++++..+...........................................++............................
(PID.TID 0000.0001) //     42 .........+++++++++++....................................+++++++++++.........................
(PID.TID 0000.0001) //     41 ........+++++++.+++++..................................++++++++++++++.......................
(PID.TID 0000.0001) //     40 ........+++++++.+++++.................................+++++++++++++++++.....................
(PID.TID 0000.0001) //     39 ..........+++++.+++++.................................++++++++++++++++++....................
(PID.TID 0000.0001) //     38 ..........+++++++++++.............+...................+++++++++++++++++++......++++.........
(PID.TID 0000.0001) //     37 ...........++++++++++++......+++++++.........+.......+++++++++++++++++++++++..++++++........
(PID.TID 0000.0001) //     36 ++.........++++++++++++....+++++++++.........+.......+++++++++++++++++++++++++++++++++......
(PID.TID 0000.0001) //     35 ++..........++++++++++++++++++++++++++......++......++++++++++++++++....++++++++++++++......
(PID.TID 0000.0001) //     34 +++.........++++++++++++++++++++++++++.....++......++.+++++++++++++.....+++++++++++++++.....
(PID.TID 0000.0001) //     33 +++...........+++++++++++++++++++++++++++++++.+++++++..+++++++++++..........+++++++++++.....
(PID.TID 0000.0001) //     40 ........+++++++.+++++.................................+++++++++++++++++.....................
(PID.TID 0000.0001) //     39 ..........+++++.+++++.................................++++++++++++++++++....................
(PID.TID 0000.0001) //     38 ..........+++++++++++.............+...................+++++++++++++++++++......++++.........
(PID.TID 0000.0001) //     37 ...........++++++++++++......+++++++.........+.......+++++++++++++++++++++++..++++++........
(PID.TID 0000.0001) //     36 ++.........++++++++++++....+++++++++.........+.......+++++++++++++++++++++++++++++++++......
(PID.TID 0000.0001) //     35 ++..........++++++++++++++++++++++++++......++......++++++++++++++++....++++++++++++++......
(PID.TID 0000.0001) //     34 +++.........++++++++++++++++++++++++++.....++......++.+++++++++++++.....+++++++++++++++.....
(PID.TID 0000.0001) //     33 +++...........+++++++++++++++++++++++++++++++.+++++++..+++++++++++..........+++++++++++.....
(PID.TID 0000.0001) //     32 +++...........++++++++++++++....+++++++++++++.+++++++..+++++++++.............++++++++++.....
(PID.TID 0000.0001) //     31 +++............+++++++++++++....+++++++++++++.+++++++..++++++.....................+.+++.....
(PID.TID 0000.0001) //     30 ...............+++++++++++++....+++++++++++++.+++++++.++++..................................
(PID.TID 0000.0001) //     29 ................+++++++++++++++++++++++++++++++++++++++.....................................
(PID.TID 0000.0001) //     28 ................+++++++++++++++++++++++++++++++++++++++.....................................
(PID.TID 0000.0001) //     27 ................++++++++++++++++++++++++++++++++++++++......................................
(PID.TID 0000.0001) //     26 ................++++++++++++++++++++++++++++++++++++++......................................
(PID.TID 0000.0001) //     25 ................+++++++++++++++++++++++++++++++++++++++.....................................
(PID.TID 0000.0001) //     24 ...............++++++++++++++++++++++++++++++++++++++++.....................................
(PID.TID 0000.0001) //     23 ..............+++++++++++++++++++++++++++++++++++++++++.....................................
(PID.TID 0000.0001) //     22 ...............++++++++++++++++++++++..+++++++.++++++++.....................................
(PID.TID 0000.0001) //     21 ................++.++++++++...+..++++...+.++++..+.+++++.....................................
(PID.TID 0000.0001) //     20 ...................++++++.........+++...+.++++..+.+++++.....................................
(PID.TID 0000.0001) //     19 ...................+++++...........+++....++++....++++++....................................
(PID.TID 0000.0001) //     18 ...................+++.............+++...+...+...+...++++...................................
(PID.TID 0000.0001) //     17 ...................++..............++++++.....+++.....+++...................................
(PID.TID 0000.0001) //     16 ..................................++++++......++.......++++.................................
(PID.TID 0000.0001) //     15 ..................................++++++......++........+++.................................
(PID.TID 0000.0001) //     14 .................................+++++++......++........++++................................
(PID.TID 0000.0001) //     13 .................................+++++...................++++...............................
(PID.TID 0000.0001) //     12 .................................+++.....................+++++..............................
(PID.TID 0000.0001) //     11 .........................................................+++++..............................
(PID.TID 0000.0001) //     10 .........................................................++++++.............................
(PID.TID 0000.0001) //      9 .........................................................++++++.............................
(PID.TID 0000.0001) //      8 ..........................................................++++++............................
(PID.TID 0000.0001) //      7 ..........................................................++.+++............................
(PID.TID 0000.0001) //      6 .............................................................+++............................
(PID.TID 0000.0001) //      5 .............................................................+++............................
(PID.TID 0000.0001) //      4 ...............................................................+............................
(PID.TID 0000.0001) //      3 ...............................................................+............................
(PID.TID 0000.0001) //      2 ............................................................................................
(PID.TID 0000.0001) //      1 ............................................................................................
(PID.TID 0000.0001) //      0 ....++++++++++++++++++++++..............................................................++++
(PID.TID 0000.0001) //     -1 ....++++++++++++++++++++++..............................................................++++
(PID.TID 0000.0001) //     -2 ....++++++++++++++++++++++..............................................................++++
(PID.TID 0000.0001) //     -3 ....+++++++++++++++++++++++.............................................................++++
(PID.TID 0000.0001) // =======================================================
(PID.TID 0000.0001) // END OF FIELD                                          =
(PID.TID 0000.0001) // =======================================================
(PID.TID 0000.0001) 
(PID.TID 0000.0001) 
(PID.TID 0000.0001) // =======================================================
(PID.TID 0000.0001) // Calendar configuration >>> START <<<
(PID.TID 0000.0001) // =======================================================
(PID.TID 0000.0001) 
(PID.TID 0000.0001) modelstart = /* Start time of the model integration [s] */
(PID.TID 0000.0001)                 2.260656000000000E+08
(PID.TID 0000.0001)     ;
(PID.TID 0000.0001) modelend  = /* End time of the model integration [s] */
(PID.TID 0000.0001)                 2.260704000000000E+08
(PID.TID 0000.0001)     ;
(PID.TID 0000.0001) modelstep = /* Time interval for a model forward step [s] */
(PID.TID 0000.0001)                 1.200000000000000E+03
(PID.TID 0000.0001)     ;
(PID.TID 0000.0001) usingGregorianCalendar= /* Calendar Type: Gregorian Calendar */
(PID.TID 0000.0001)                   T
(PID.TID 0000.0001)     ;
(PID.TID 0000.0001) usingJulianCalendar = /* Calendar Type: Julian Calendar */
(PID.TID 0000.0001)                   F
(PID.TID 0000.0001)     ;
(PID.TID 0000.0001) usingModelCalendar  = /* Calendar Type: Model Calendar */
(PID.TID 0000.0001)                   F
(PID.TID 0000.0001)     ;
(PID.TID 0000.0001) modelstartdate YYYYMMDD = /* Model start date YYYY-MM-DD */
(PID.TID 0000.0001)                19990301
(PID.TID 0000.0001)     ;
(PID.TID 0000.0001)   modelstartdate HHMMSS = /* Model start date HH-MM-SS  */
(PID.TID 0000.0001)                  120000
(PID.TID 0000.0001)     ;
(PID.TID 0000.0001) modelenddate   YYYYMMDD = /* Model end date YYYY-MM-DD */
(PID.TID 0000.0001)                19990301
(PID.TID 0000.0001)     ;
(PID.TID 0000.0001)   modelenddate   HHMMSS = /* Model end date HH-MM-SS  */
(PID.TID 0000.0001)                  132000
(PID.TID 0000.0001)     ;
(PID.TID 0000.0001) intyears = /* Number of calendar years affected by the integration */
(PID.TID 0000.0001)                       1
(PID.TID 0000.0001)     ;
(PID.TID 0000.0001) intmonths= /* Number of calendar months affected by the integration */
(PID.TID 0000.0001)                       1
(PID.TID 0000.0001)     ;
(PID.TID 0000.0001) intdays = /* Number of calendar days affected by the integration */
(PID.TID 0000.0001)                       1
(PID.TID 0000.0001)     ;
(PID.TID 0000.0001) modeliter0 = /* Base timestep number  */
(PID.TID 0000.0001)                  188388
(PID.TID 0000.0001)     ;
(PID.TID 0000.0001) modeliterend = /* Final timestep number  */
(PID.TID 0000.0001)                  188392
(PID.TID 0000.0001)     ;
(PID.TID 0000.0001) modelintsteps= /* Number of model timesteps  */
(PID.TID 0000.0001)                       4
(PID.TID 0000.0001)     ;
(PID.TID 0000.0001) 
(PID.TID 0000.0001) // =======================================================
(PID.TID 0000.0001) // Calendar configuration  >>> END <<<
(PID.TID 0000.0001) // =======================================================
(PID.TID 0000.0001) 
(PID.TID 0000.0001) GAD_INIT_FIXED: GAD_OlMinSize=  4  0  1
(PID.TID 0000.0001) 
(PID.TID 0000.0001) // ===================================
(PID.TID 0000.0001) // GAD parameters :
(PID.TID 0000.0001) // ===================================
(PID.TID 0000.0001) tempAdvScheme =   /* Temp. Horiz.Advection scheme selector */
(PID.TID 0000.0001)                       7
(PID.TID 0000.0001)     ;
(PID.TID 0000.0001) tempVertAdvScheme =   /* Temp. Vert. Advection scheme selector */
(PID.TID 0000.0001)                       7
(PID.TID 0000.0001)     ;
(PID.TID 0000.0001) tempMultiDimAdvec =   /* use Muti-Dim Advec method for Temp */
(PID.TID 0000.0001)                   T
(PID.TID 0000.0001)     ;
(PID.TID 0000.0001) tempSOM_Advection = /* use 2nd Order Moment Advection for Temp */
(PID.TID 0000.0001)                   F
(PID.TID 0000.0001)     ;
(PID.TID 0000.0001) AdamsBashforthGt = /* apply Adams-Bashforth extrapolation on Gt */
(PID.TID 0000.0001)                   F
(PID.TID 0000.0001)     ;
(PID.TID 0000.0001) AdamsBashforth_T = /* apply Adams-Bashforth extrapolation on Temp */
(PID.TID 0000.0001)                   F
(PID.TID 0000.0001)     ;
(PID.TID 0000.0001) saltAdvScheme =   /* Salt. Horiz.advection scheme selector */
(PID.TID 0000.0001)                       7
(PID.TID 0000.0001)     ;
(PID.TID 0000.0001) saltVertAdvScheme =   /* Salt. Vert. Advection scheme selector */
(PID.TID 0000.0001)                       7
(PID.TID 0000.0001)     ;
(PID.TID 0000.0001) saltMultiDimAdvec =   /* use Muti-Dim Advec method for Salt */
(PID.TID 0000.0001)                   T
(PID.TID 0000.0001)     ;
(PID.TID 0000.0001) saltSOM_Advection = /* use 2nd Order Moment Advection for Salt */
(PID.TID 0000.0001)                   F
(PID.TID 0000.0001)     ;
(PID.TID 0000.0001) AdamsBashforthGs = /* apply Adams-Bashforth extrapolation on Gs */
(PID.TID 0000.0001)                   F
(PID.TID 0000.0001)     ;
(PID.TID 0000.0001) AdamsBashforth_S = /* apply Adams-Bashforth extrapolation on Salt */
(PID.TID 0000.0001)                   F
(PID.TID 0000.0001)     ;
(PID.TID 0000.0001) // ===================================
(PID.TID 0000.0001) 
(PID.TID 0000.0001) // =======================================================
(PID.TID 0000.0001) // External forcing (EXF) configuration >>> START <<<
(PID.TID 0000.0001) // =======================================================
(PID.TID 0000.0001) 
(PID.TID 0000.0001)  EXF general parameters:
(PID.TID 0000.0001) 
(PID.TID 0000.0001) exf_iprec = /* exf file precision */
(PID.TID 0000.0001)                      32
(PID.TID 0000.0001)     ;
(PID.TID 0000.0001) useExfYearlyFields = /* add extension _YEAR to input file names */
(PID.TID 0000.0001)                   T
(PID.TID 0000.0001)     ;
(PID.TID 0000.0001) twoDigitYear = /* use 2-digit year extension */
(PID.TID 0000.0001)                   T
(PID.TID 0000.0001)     ;
(PID.TID 0000.0001) exf_verbose = /* print more messages to STDOUT */
(PID.TID 0000.0001)                   F
(PID.TID 0000.0001)     ;
(PID.TID 0000.0001) useExfCheckRange = /* check for fields range */
(PID.TID 0000.0001)                   F
(PID.TID 0000.0001)     ;
(PID.TID 0000.0001) exf_monFreq = /* EXF monitor frequency [ s ] */
(PID.TID 0000.0001)                 1.200000000000000E+03
(PID.TID 0000.0001)     ;
(PID.TID 0000.0001) repeatPeriod = /* period for cycling forcing dataset [ s ] */
(PID.TID 0000.0001)                 0.000000000000000E+00
(PID.TID 0000.0001)     ;
(PID.TID 0000.0001) climTempFreeze= /* Minimum climatological temperature [deg.C] */
(PID.TID 0000.0001)                -1.900000000000000E+00
(PID.TID 0000.0001)     ;
(PID.TID 0000.0001) windStressMax = /* Maximum absolute windstress [ Pa ] */
(PID.TID 0000.0001)                 2.000000000000000E+00
(PID.TID 0000.0001)     ;
(PID.TID 0000.0001) stressIsOnCgrid = /* set u,v_stress on Arakawa C-grid */
(PID.TID 0000.0001)                   F
(PID.TID 0000.0001)     ;
(PID.TID 0000.0001) cen2kel = /* conversion of deg. Centigrade to Kelvin [K] */
(PID.TID 0000.0001)                 2.731500000000000E+02
(PID.TID 0000.0001)     ;
(PID.TID 0000.0001) gravity_mks= /* gravitational acceleration [m/s^2] */
(PID.TID 0000.0001)                 9.810000000000000E+00
(PID.TID 0000.0001)     ;
(PID.TID 0000.0001) atmrho =  /* mean atmospheric density [kg/m^3] */
(PID.TID 0000.0001)                 1.200000000000000E+00
(PID.TID 0000.0001)     ;
(PID.TID 0000.0001) atmcp =  /* mean atmospheric specific heat [J/kg/K] */
(PID.TID 0000.0001)                 1.005000000000000E+03
(PID.TID 0000.0001)     ;
(PID.TID 0000.0001) flamb =  /* latent heat of evaporation [J/kg] */
(PID.TID 0000.0001)                 2.500000000000000E+06
(PID.TID 0000.0001)     ;
(PID.TID 0000.0001) flami =  /* latent heat of pure-ice melting [J/kg] */
(PID.TID 0000.0001)                 3.340000000000000E+05
(PID.TID 0000.0001)     ;
(PID.TID 0000.0001) cvapor_fac = /* const. for Saturation calculation [?] */
(PID.TID 0000.0001)                 6.403800000000000E+05
(PID.TID 0000.0001)     ;
(PID.TID 0000.0001) cvapor_exp = /* const. for Saturation calculation [?] */
(PID.TID 0000.0001)                 5.107400000000000E+03
(PID.TID 0000.0001)     ;
(PID.TID 0000.0001) cvapor_fac_ice= /* const. for Saturation calculation [?] */
(PID.TID 0000.0001)                 1.163780000000000E+07
(PID.TID 0000.0001)     ;
(PID.TID 0000.0001) cvapor_exp_ice= /* const. for Saturation calculation [?] */
(PID.TID 0000.0001)                 5.897800000000000E+03
(PID.TID 0000.0001)     ;
(PID.TID 0000.0001) humid_fac = /* humidity coef. in virtual temp. [(kg/kg)^-1] */
(PID.TID 0000.0001)                 6.060000000000000E-01
(PID.TID 0000.0001)     ;
(PID.TID 0000.0001) gamma_blk = /* adiabatic lapse rate [?] */
(PID.TID 0000.0001)                 1.000000000000000E-02
(PID.TID 0000.0001)     ;
(PID.TID 0000.0001) saltsat = /* reduction of Qsat over salty water [-] */
(PID.TID 0000.0001)                 9.800000000000000E-01
(PID.TID 0000.0001)     ;
(PID.TID 0000.0001) noNegativeEvap = /* prevent negative Evaporation */
(PID.TID 0000.0001)                   F
(PID.TID 0000.0001)     ;
(PID.TID 0000.0001) sstExtrapol = /* extrapolation coeff from lev. 1 & 2 to surf [-] */
(PID.TID 0000.0001)                 0.000000000000000E+00
(PID.TID 0000.0001)     ;
(PID.TID 0000.0001) cDrag_1 = /* coef used in drag calculation [?] */
(PID.TID 0000.0001)                 2.700000000000000E-03
(PID.TID 0000.0001)     ;
(PID.TID 0000.0001) cDrag_2 = /* coef used in drag calculation [?] */
(PID.TID 0000.0001)                 1.420000000000000E-04
(PID.TID 0000.0001)     ;
(PID.TID 0000.0001) cDrag_3 = /* coef used in drag calculation [?] */
(PID.TID 0000.0001)                 7.640000000000000E-05
(PID.TID 0000.0001)     ;
(PID.TID 0000.0001) cStanton_1 = /* coef used in Stanton number calculation [?] */
(PID.TID 0000.0001)                 3.270000000000000E-02
(PID.TID 0000.0001)     ;
(PID.TID 0000.0001) cStanton_2 = /* coef used in Stanton number calculation [?] */
(PID.TID 0000.0001)                 1.800000000000000E-02
(PID.TID 0000.0001)     ;
(PID.TID 0000.0001) cDalton = /* coef used in Dalton number calculation [?] */
(PID.TID 0000.0001)                 3.460000000000000E-02
(PID.TID 0000.0001)     ;
(PID.TID 0000.0001) exf_scal_BulkCdn= /* Drag coefficient scaling factor [-] */
(PID.TID 0000.0001)                 1.000000000000000E+00
(PID.TID 0000.0001)     ;
(PID.TID 0000.0001) zolmin = /* minimum stability parameter [?] */
(PID.TID 0000.0001)                -1.000000000000000E+02
(PID.TID 0000.0001)     ;
(PID.TID 0000.0001) psim_fac = /* coef used in turbulent fluxes calculation [-] */
(PID.TID 0000.0001)                 5.000000000000000E+00
(PID.TID 0000.0001)     ;
(PID.TID 0000.0001) zref =  /* reference height [ m ] */
(PID.TID 0000.0001)                 1.000000000000000E+01
(PID.TID 0000.0001)     ;
(PID.TID 0000.0001) hu =  /* height of mean wind [ m ] */
(PID.TID 0000.0001)                 1.000000000000000E+01
(PID.TID 0000.0001)     ;
(PID.TID 0000.0001) ht =  /* height of mean temperature [ m ] */
(PID.TID 0000.0001)                 2.000000000000000E+00
(PID.TID 0000.0001)     ;
(PID.TID 0000.0001) hq =  /* height of mean spec.humidity [ m ] */
(PID.TID 0000.0001)                 2.000000000000000E+00
(PID.TID 0000.0001)     ;
(PID.TID 0000.0001) uMin = /* minimum wind speed [m/s] */
(PID.TID 0000.0001)                 5.000000000000000E-01
(PID.TID 0000.0001)     ;
(PID.TID 0000.0001) useStabilityFct_overIce= /* transfert Coeffs over sea-ice depend on stability */
(PID.TID 0000.0001)                   F
(PID.TID 0000.0001)     ;
(PID.TID 0000.0001) exf_iceCd = /* drag coefficient over sea-ice (fixed) [-] */
(PID.TID 0000.0001)                 1.630000000000000E-03
(PID.TID 0000.0001)     ;
(PID.TID 0000.0001) exf_iceCe = /* transfert coeff. over sea-ice, for Evap (fixed) [-] */
(PID.TID 0000.0001)                 1.630000000000000E-03
(PID.TID 0000.0001)     ;
(PID.TID 0000.0001) exf_iceCh = /* transfert coeff. over sea-ice, Sens.Heat.(fixed)[-] */
(PID.TID 0000.0001)                 1.630000000000000E-03
(PID.TID 0000.0001)     ;
(PID.TID 0000.0001) exf_albedo =  /* Sea-water albedo [-] */
(PID.TID 0000.0001)                 1.500000000000000E-01
(PID.TID 0000.0001)     ;
(PID.TID 0000.0001) useExfZenAlbedo = /* Sea-water albedo varies with zenith angle */
(PID.TID 0000.0001)                   F
(PID.TID 0000.0001)     ;
(PID.TID 0000.0001) select_ZenAlbedo = /* Sea-water albedo computation method */
(PID.TID 0000.0001)                       0
(PID.TID 0000.0001)     ;
(PID.TID 0000.0001) useExfZenIncoming = /* compute incoming solar radiation */
(PID.TID 0000.0001)                   F
(PID.TID 0000.0001)     ;
(PID.TID 0000.0001) ocean_emissivity = /* longwave ocean-surface emissivity [-] */
(PID.TID 0000.0001)                 9.700176366843034E-01
(PID.TID 0000.0001)     ;
(PID.TID 0000.0001) ice_emissivity = /* longwave seaice emissivity [-] */
(PID.TID 0000.0001)                 9.500000000000000E-01
(PID.TID 0000.0001)     ;
(PID.TID 0000.0001) snow_emissivity = /* longwave snow  emissivity [-] */
(PID.TID 0000.0001)                 9.500000000000000E-01
(PID.TID 0000.0001)     ;
(PID.TID 0000.0001) 
(PID.TID 0000.0001)  EXF main CPP flags:
(PID.TID 0000.0001) 
(PID.TID 0000.0001) // USE_EXF_INTERPOLATION:              defined
(PID.TID 0000.0001) // ALLOW_ATM_TEMP:                     defined
(PID.TID 0000.0001) // ALLOW_ATM_WIND (useAtmWind):        defined
(PID.TID 0000.0001) // ALLOW_DOWNWARD_RADIATION:           defined
(PID.TID 0000.0001) // ALLOW_BULKFORMULAE:                 defined
(PID.TID 0000.0001) 
(PID.TID 0000.0001)    Net shortwave flux forcing starts at                0.
(PID.TID 0000.0001)    Net shortwave flux forcing period is                0.
(PID.TID 0000.0001)    Net shortwave flux forcing is read from file:
(PID.TID 0000.0001)    >>    <<
(PID.TID 0000.0001)    interpolate "swflux" (method=  1 ):
(PID.TID 0000.0001)    lon0= 6.173E+04, nlon=    76, lon_inc= 1.235E+05
(PID.TID 0000.0001)    lat0= 6.173E+04, nlat=    72, lat_inc= 1.235E+05
(PID.TID 0000.0001) 
(PID.TID 0000.0001)    Zonal wind forcing starts at                    5140800.
(PID.TID 0000.0001)    Zonal wind forcing period is                      21600.
(PID.TID 0000.0001)    Zonal wind forcing is read from file:
(PID.TID 0000.0001)    >>  RG_u10m  <<
(PID.TID 0000.0001)    interpolate "uwind" (method= 12 ):
(PID.TID 0000.0001)    lon0=   0.00000, nlon=   192, lon_inc= 1.8750000
(PID.TID 0000.0001)    lat0= -88.54200, nlat=    94, inc(min,max)= 1.88880 1.90480
(PID.TID 0000.0001) 
(PID.TID 0000.0001)    Meridional wind forcing starts at               5140800.
(PID.TID 0000.0001)    Meridional wind forcing period is                 21600.
(PID.TID 0000.0001)    Meridional wind forcing is read from file:
(PID.TID 0000.0001)    >>  RG_v10m  <<
(PID.TID 0000.0001)    interpolate "vwind" (method= 22 ):
(PID.TID 0000.0001)    lon0=   0.00000, nlon=   192, lon_inc= 1.8750000
(PID.TID 0000.0001)    lat0= -88.54200, nlat=    94, inc(min,max)= 1.88880 1.90480
(PID.TID 0000.0001)     Interp. U & V comp. together: uvInterp_wind =    T
(PID.TID 0000.0001) 
(PID.TID 0000.0001)    Atmospheric temperature starts at               5140800.
(PID.TID 0000.0001)    Atmospheric temperature period is                 21600.
(PID.TID 0000.0001)    Atmospheric temperature is read from file:
(PID.TID 0000.0001)    >>  RG_tmp2m  <<
(PID.TID 0000.0001)    interpolate "atemp" (method=  1 ):
(PID.TID 0000.0001)    lon0=   0.00000, nlon=   192, lon_inc= 1.8750000
(PID.TID 0000.0001)    lat0= -88.54200, nlat=    94, inc(min,max)= 1.88880 1.90480
(PID.TID 0000.0001) 
(PID.TID 0000.0001)    Atmospheric specific humidity starts at         5140800.
(PID.TID 0000.0001)    Atmospheric specific humidity period is           21600.
(PID.TID 0000.0001)    Atmospheric specific humidity is read from file:
(PID.TID 0000.0001)    >>  RG_spfh2m  <<
(PID.TID 0000.0001)    interpolate "aqh" (method=  1 ):
(PID.TID 0000.0001)    lon0=   0.00000, nlon=   192, lon_inc= 1.8750000
(PID.TID 0000.0001)    lat0= -88.54200, nlat=    94, inc(min,max)= 1.88880 1.90480
(PID.TID 0000.0001) 
(PID.TID 0000.0001)    Net longwave flux forcing starts at                 0.
(PID.TID 0000.0001)    Net longwave flux forcing period is                 0.
(PID.TID 0000.0001)    Net longwave flux forcing is read from file:
(PID.TID 0000.0001)    >>    <<
(PID.TID 0000.0001)    interpolate "lwflux" (method=  1 ):
(PID.TID 0000.0001)    lon0= 6.173E+04, nlon=    76, lon_inc= 1.235E+05
(PID.TID 0000.0001)    lat0= 6.173E+04, nlat=    72, lat_inc= 1.235E+05
(PID.TID 0000.0001) 
(PID.TID 0000.0001)    Precipitation data set starts at                5140800.
(PID.TID 0000.0001)    Precipitation data period is                      21600.
(PID.TID 0000.0001)    Precipitation data is read from file:
(PID.TID 0000.0001)    >>  RG_rain  <<
(PID.TID 0000.0001)    interpolate "precip" (method=  1 ):
(PID.TID 0000.0001)    lon0=   0.00000, nlon=   192, lon_inc= 1.8750000
(PID.TID 0000.0001)    lat0= -88.54200, nlat=    94, inc(min,max)= 1.88880 1.90480
(PID.TID 0000.0001) 
(PID.TID 0000.0001) // EXF_READ_EVAP:                  NOT defined
(PID.TID 0000.0001) 
(PID.TID 0000.0001) // ALLOW_RUNOFF:                       defined
(PID.TID 0000.0001)    Runoff starts at               0.
(PID.TID 0000.0001)    Runoff period is             -12.
(PID.TID 0000.0001)    Runoff is read from file:
(PID.TID 0000.0001)    >>  runoff-360x180x12.bin  <<
(PID.TID 0000.0001)    interpolate "runoff" (method=  1 ):
(PID.TID 0000.0001)    lon0=   0.50000, nlon=   360, lon_inc= 1.0000000
(PID.TID 0000.0001)    lat0= -89.50000, nlat=   180, lat_inc= 1.0000000
(PID.TID 0000.0001) 
(PID.TID 0000.0001)    Downward shortwave flux forcing starts at          5130000.
(PID.TID 0000.0001)    Downward shortwave flux forcing period is            21600.
(PID.TID 0000.0001)    Downward shortwave flux forcing is read from file:
(PID.TID 0000.0001)    >>  RG_dsw  <<
(PID.TID 0000.0001)    interpolate "swdown" (method=  1 ):
(PID.TID 0000.0001)    lon0=   0.00000, nlon=   192, lon_inc= 1.8750000
(PID.TID 0000.0001)    lat0= -88.54200, nlat=    94, inc(min,max)= 1.88880 1.90480
(PID.TID 0000.0001) 
(PID.TID 0000.0001)    Downward longwave flux forcing starts at           5130000.
(PID.TID 0000.0001)    Downward longwave flux forcing period is             21600.
(PID.TID 0000.0001)    Downward longwave flux forcing is read from file:
(PID.TID 0000.0001)    >>  RG_dlw  <<
(PID.TID 0000.0001)    interpolate "lwdown" (method=  1 ):
(PID.TID 0000.0001)    lon0=   0.00000, nlon=   192, lon_inc= 1.8750000
(PID.TID 0000.0001)    lat0= -88.54200, nlat=    94, inc(min,max)= 1.88880 1.90480
(PID.TID 0000.0001) 
(PID.TID 0000.0001)    Atmospheric pressure forcing starts at                0.
(PID.TID 0000.0001)    Atmospheric pressure forcing period is                0.
(PID.TID 0000.0001)    Atmospheric pressureforcing is read from file:
(PID.TID 0000.0001)    >>    <<
(PID.TID 0000.0001)    interpolate "apressure" (method=  1 ):
(PID.TID 0000.0001)    lon0= 6.173E+04, nlon=    76, lon_inc= 1.235E+05
(PID.TID 0000.0001)    lat0= 6.173E+04, nlat=    72, lat_inc= 1.235E+05
(PID.TID 0000.0001) 
(PID.TID 0000.0001) // =======================================================
(PID.TID 0000.0001) // External forcing (EXF) climatology configuration :
(PID.TID 0000.0001) // =======================================================
(PID.TID 0000.0001) 
(PID.TID 0000.0001) // ALLOW_CLIMSST_RELAXATION:       NOT defined
(PID.TID 0000.0001) // ALLOW_CLIMSSS_RELAXATION:           defined
(PID.TID 0000.0001) 
(PID.TID 0000.0001)    Climatological SSS starts at                   0.
(PID.TID 0000.0001)    Climatological SSS period is                 -12.
(PID.TID 0000.0001)    Climatological SSS is read from file:
(PID.TID 0000.0001)    >>  LEV01_SSS_360x180x12.bin  <<
(PID.TID 0000.0001)    interpolate "climsss" (method=  2 ):
(PID.TID 0000.0001)    lon0=   0.50000, nlon=   360, lon_inc= 1.0000000
(PID.TID 0000.0001)    lat0= -89.50000, nlat=   180, lat_inc= 1.0000000
(PID.TID 0000.0001) 
(PID.TID 0000.0001) // =======================================================
(PID.TID 0000.0001) // External forcing (EXF) configuration  >>> END <<<
(PID.TID 0000.0001) // =======================================================
(PID.TID 0000.0001) 
(PID.TID 0000.0001) // =======================================================
(PID.TID 0000.0001) // Darwin loading parameters
(PID.TID 0000.0001) // =======================================================
(PID.TID 0000.0001) // =======================================================
(PID.TID 0000.0001) // Seaice configuration (SEAICE_PARM01) >>> START <<<
(PID.TID 0000.0001) // =======================================================
(PID.TID 0000.0001) 
(PID.TID 0000.0001)    Seaice time stepping configuration   > START <
(PID.TID 0000.0001)    ----------------------------------------------
(PID.TID 0000.0001) SEAICE_deltaTtherm= /* thermodynamic timestep */
(PID.TID 0000.0001)                 1.200000000000000E+03
(PID.TID 0000.0001)     ;
(PID.TID 0000.0001) SEAICE_deltaTdyn  = /* dynamic timestep */
(PID.TID 0000.0001)                 1.200000000000000E+03
(PID.TID 0000.0001)     ;
(PID.TID 0000.0001) SEAICE_deltaTevp  = /* EVP timestep */
(PID.TID 0000.0001)                 1.234567000000000E+05
(PID.TID 0000.0001)     ;
(PID.TID 0000.0001) SEAICErestoreUnderIce  = /* restore T and S under ice */
(PID.TID 0000.0001)                   F
(PID.TID 0000.0001)     ;
(PID.TID 0000.0001) 
(PID.TID 0000.0001)    Seaice dynamics configuration   > START <
(PID.TID 0000.0001)    ------------------------------------------
(PID.TID 0000.0001) SEAICEuseDYNAMICS = /* use dynamics */
(PID.TID 0000.0001)                   T
(PID.TID 0000.0001)     ;
(PID.TID 0000.0001) model grid type   = /* type of sea ice model grid */
(PID.TID 0000.0001)               'C-GRID'
(PID.TID 0000.0001)     ;
(PID.TID 0000.0001) SEAICEuseEVP      = /* use EVP solver rather than LSR */
(PID.TID 0000.0001)                   F
(PID.TID 0000.0001)     ;
(PID.TID 0000.0001) SEAICEuseFREEDRIFT = /* use free drift solution */
(PID.TID 0000.0001)                   F
(PID.TID 0000.0001)     ;
(PID.TID 0000.0001) OCEAN_drag        = /* air-ocean drag coefficient */
(PID.TID 0000.0001)                 1.000000000000000E-03
(PID.TID 0000.0001)     ;
(PID.TID 0000.0001) SEAICE_drag       = /* air-ice drag coefficient */
(PID.TID 0000.0001)                 1.000000000000000E-03
(PID.TID 0000.0001)     ;
(PID.TID 0000.0001) SEAICE_drag_south      = /* Southern Ocean SEAICE_drag */
(PID.TID 0000.0001)                 1.000000000000000E-03
(PID.TID 0000.0001)     ;
(PID.TID 0000.0001) SEAICE_waterDrag  = /* water-ice drag * density */
(PID.TID 0000.0001)                 5.500000000000000E+00
(PID.TID 0000.0001)     ;
(PID.TID 0000.0001) SEAICE_waterDrag_south = /* Southern Ocean waterDrag */
(PID.TID 0000.0001)                 5.500000000000000E+00
(PID.TID 0000.0001)     ;
(PID.TID 0000.0001) SEAICEuseTilt     = /* include surface tilt in dyna. */
(PID.TID 0000.0001)                   T
(PID.TID 0000.0001)     ;
(PID.TID 0000.0001) SEAICEuseTEM      = /* use truncated ellipse rheology */
(PID.TID 0000.0001)                   F
(PID.TID 0000.0001)     ;
(PID.TID 0000.0001) SEAICE_strength   = /* sea-ice strength Pstar */
(PID.TID 0000.0001)                 2.750000000000000E+04
(PID.TID 0000.0001)     ;
(PID.TID 0000.0001) SEAICEpresH0   = /* sea-ice strength Heff threshold */
(PID.TID 0000.0001)                 1.000000000000000E+00
(PID.TID 0000.0001)     ;
(PID.TID 0000.0001) SEAICEpresPow0 = /* exponent for Heff<SEAICEpresH0 */
(PID.TID 0000.0001)                       1
(PID.TID 0000.0001)     ;
(PID.TID 0000.0001) SEAICEpresPow1 = /* exponent for Heff>SEAICEpresH0 */
(PID.TID 0000.0001)                       1
(PID.TID 0000.0001)     ;
(PID.TID 0000.0001) SEAICEetaZmethod = /* method computing eta at Z-point */
(PID.TID 0000.0001)                       0
(PID.TID 0000.0001)     ;
(PID.TID 0000.0001) SEAICE_zetaMin    = /* lower bound for viscosity */
(PID.TID 0000.0001)                 0.000000000000000E+00
(PID.TID 0000.0001)     ;
(PID.TID 0000.0001) SEAICE_eccen    = /* elliptical yield curve eccent */
(PID.TID 0000.0001)                 2.000000000000000E+00
(PID.TID 0000.0001)     ;
(PID.TID 0000.0001) SEAICEstressFactor    = /* wind stress scaling factor */
(PID.TID 0000.0001)                 1.000000000000000E+00
(PID.TID 0000.0001)     ;
(PID.TID 0000.0001) SEAICE_airTurnAngle    = /* air-ice turning angle */
(PID.TID 0000.0001)                 0.000000000000000E+00
(PID.TID 0000.0001)     ;
(PID.TID 0000.0001) SEAICE_waterTurnAngle  = /* ice-water turning angle */
(PID.TID 0000.0001)                 0.000000000000000E+00
(PID.TID 0000.0001)     ;
(PID.TID 0000.0001) SEAICEuseMetricTerms = /* use metric terms */
(PID.TID 0000.0001)                   T
(PID.TID 0000.0001)     ;
(PID.TID 0000.0001) SEAICE_no_slip    = /* no slip boundary conditions */
(PID.TID 0000.0001)                   T
(PID.TID 0000.0001)     ;
(PID.TID 0000.0001) SEAICE_clipVeloctities = /* impose max. vels. */
(PID.TID 0000.0001)                   F
(PID.TID 0000.0001)     ;
(PID.TID 0000.0001) useHB87stressCoupling  = /* altern. ice-ocean stress */
(PID.TID 0000.0001)                   F
(PID.TID 0000.0001)     ;
(PID.TID 0000.0001) SEAICE_maskRHS    = /* mask RHS of solver */
(PID.TID 0000.0001)                   F
(PID.TID 0000.0001)     ;
(PID.TID 0000.0001) LSR_mixIniGuess = /* mix free-drift sol. into LSR initial Guess */
(PID.TID 0000.0001)                       0
(PID.TID 0000.0001)     ;
(PID.TID 0000.0001) SOLV_MAX_ITERS    = /* max. number of LSR solver steps */
(PID.TID 0000.0001)                    1500
(PID.TID 0000.0001)     ;
(PID.TID 0000.0001) SEAICE_LSRrelaxU  = /* LSR solver: relaxation parameter */
(PID.TID 0000.0001)                 9.500000000000000E-01
(PID.TID 0000.0001)     ;
(PID.TID 0000.0001) SEAICE_LSRrelaxV  = /* LSR solver: relaxation parameter */
(PID.TID 0000.0001)                 9.500000000000000E-01
(PID.TID 0000.0001)     ;
(PID.TID 0000.0001) LSR_ERROR         = /* sets accuracy of LSR solver */
(PID.TID 0000.0001)                 1.000000000000000E-04
(PID.TID 0000.0001)     ;
(PID.TID 0000.0001) SOLV_NCHECK       = /* test interval for LSR solver */
(PID.TID 0000.0001)                       2
(PID.TID 0000.0001)     ;
(PID.TID 0000.0001) NPSEUDOTIMESTEPS  = /* num. of extra pseudo time steps */
(PID.TID 0000.0001)                       2
(PID.TID 0000.0001)     ;
(PID.TID 0000.0001) SEAICEuseMultiTileSolver = /* use full domain tri-diag solver */
(PID.TID 0000.0001)                   F
(PID.TID 0000.0001)     ;
(PID.TID 0000.0001) SEAICE_OLx = /* overlap for LSR/preconditioner */
(PID.TID 0000.0001)                       2
(PID.TID 0000.0001)     ;
(PID.TID 0000.0001) SEAICE_OLy = /* overlap for LSR/preconditioner */
(PID.TID 0000.0001)                       2
(PID.TID 0000.0001)     ;
(PID.TID 0000.0001) 
(PID.TID 0000.0001)    Seaice advection diffusion config,   > START <
(PID.TID 0000.0001)    -----------------------------------------------
(PID.TID 0000.0001) SEAICEadvHeff = /* advect effective ice thickness */
(PID.TID 0000.0001)                   T
(PID.TID 0000.0001)     ;
(PID.TID 0000.0001) SEAICEadvArea = /* advect fractional ice area */
(PID.TID 0000.0001)                   T
(PID.TID 0000.0001)     ;
(PID.TID 0000.0001) SEAICEadvSnow = /* advect snow layer together with ice */
(PID.TID 0000.0001)                   T
(PID.TID 0000.0001)     ;
(PID.TID 0000.0001) SEAICEadvScheme   = /* advection scheme for ice */
(PID.TID 0000.0001)                       7
(PID.TID 0000.0001)     ;
(PID.TID 0000.0001) SEAICEadvSchArea   = /* advection scheme for area */
(PID.TID 0000.0001)                       7
(PID.TID 0000.0001)     ;
(PID.TID 0000.0001) SEAICEadvSchHeff   = /* advection scheme for thickness */
(PID.TID 0000.0001)                       7
(PID.TID 0000.0001)     ;
(PID.TID 0000.0001) SEAICEadvSchSnow   = /* advection scheme for snow */
(PID.TID 0000.0001)                       7
(PID.TID 0000.0001)     ;
(PID.TID 0000.0001) SEAICEdiffKhArea   = /* diffusivity (m^2/s) for area */
(PID.TID 0000.0001)                 0.000000000000000E+00
(PID.TID 0000.0001)     ;
(PID.TID 0000.0001) SEAICEdiffKhHeff   = /* diffusivity (m^2/s) for heff */
(PID.TID 0000.0001)                 0.000000000000000E+00
(PID.TID 0000.0001)     ;
(PID.TID 0000.0001) SEAICEdiffKhSnow   = /* diffusivity (m^2/s) for snow */
(PID.TID 0000.0001)                 0.000000000000000E+00
(PID.TID 0000.0001)     ;
(PID.TID 0000.0001) DIFF1             = /* parameter used in advect.F [m/s] */
(PID.TID 0000.0001)                 0.000000000000000E+00
(PID.TID 0000.0001)     ;
(PID.TID 0000.0001) 
(PID.TID 0000.0001)    Seaice thermodynamics configuration   > START <
(PID.TID 0000.0001)    -----------------------------------------------
(PID.TID 0000.0001) SEAICE_rhoIce     = /* density of sea ice (kg/m3) */
(PID.TID 0000.0001)                 9.100000000000000E+02
(PID.TID 0000.0001)     ;
(PID.TID 0000.0001) SEAICE_rhoSnow    = /* density of snow (kg/m3) */
(PID.TID 0000.0001)                 3.300000000000000E+02
(PID.TID 0000.0001)     ;
(PID.TID 0000.0001) SEAICE_rhoAir     = /* density of air (kg/m3) */
(PID.TID 0000.0001)                 1.200000000000000E+00
(PID.TID 0000.0001)     ;
(PID.TID 0000.0001) usePW79thermodynamics  = /* default 0-layer TD */
(PID.TID 0000.0001)                   T
(PID.TID 0000.0001)     ;
(PID.TID 0000.0001) SEAICE_lhEvap     = /* latent heat of evaporation */
(PID.TID 0000.0001)                 2.500000000000000E+06
(PID.TID 0000.0001)     ;
(PID.TID 0000.0001) SEAICE_lhFusion   = /* latent heat of fusion */
(PID.TID 0000.0001)                 3.340000000000000E+05
(PID.TID 0000.0001)     ;
(PID.TID 0000.0001) SEAICE_mcPheePiston = /* turbulent flux "piston velocity" a la McPhee (m/s) */
(PID.TID 0000.0001)                 8.749999999999999E-04
(PID.TID 0000.0001)     ;
(PID.TID 0000.0001) SEAICE_mcPheeTaper = /* tapering of turbulent flux (0.< <1.) for AREA=1. */
(PID.TID 0000.0001)                 9.200000000000000E-01
(PID.TID 0000.0001)     ;
(PID.TID 0000.0001) SEAICE_mcPheeStepFunc = /* replace linear tapering with step funct. */
(PID.TID 0000.0001)                   F
(PID.TID 0000.0001)     ;
(PID.TID 0000.0001) SEAICE_frazilFrac = /* frazil (T<tempFrz) to seaice conversion rate (0.< <1.) */
(PID.TID 0000.0001)                 1.000000000000000E+00
(PID.TID 0000.0001)     ;
(PID.TID 0000.0001) SEAICE_tempFrz0   = /* freezing temp. of sea water (intercept) */
(PID.TID 0000.0001)                 9.010000000000000E-02
(PID.TID 0000.0001)     ;
(PID.TID 0000.0001) SEAICE_dTempFrz_dS= /* freezing temp. of sea water (slope) */
(PID.TID 0000.0001)                -5.750000000000000E-02
(PID.TID 0000.0001)     ;
(PID.TID 0000.0001) SEAICE_areaGainFormula = /* ice cover gain formula (1,2)*/
(PID.TID 0000.0001)                       1
(PID.TID 0000.0001)     1=from growth by ATM
(PID.TID 0000.0001)     2=from predicted growth by ATM
(PID.TID 0000.0001)     ;
(PID.TID 0000.0001) SEAICE_areaLossFormula = /* ice cover loss formula (1,2)*/
(PID.TID 0000.0001)                       1
(PID.TID 0000.0001)     1=from all but only melt conributions by ATM and OCN
(PID.TID 0000.0001)     2=from net melt-grow>0 by ATM and OCN
(PID.TID 0000.0001)     3=from predicted melt by ATM
(PID.TID 0000.0001)     ;
(PID.TID 0000.0001) HO                = /* nominal thickness of new ice */
(PID.TID 0000.0001)                 5.000000000000000E-01
(PID.TID 0000.0001)     ;
(PID.TID 0000.0001) HO_south               = /* Southern Ocean HO */
(PID.TID 0000.0001)                 5.000000000000000E-01
(PID.TID 0000.0001)     ;
(PID.TID 0000.0001) SEAICE_area_max        = /* set to les than 1. to mimic open leads */
(PID.TID 0000.0001)                 1.000000000000000E+00
(PID.TID 0000.0001)     ;
(PID.TID 0000.0001) SEAICE_salt0   = /* constant sea ice salinity */
(PID.TID 0000.0001)                 4.000000000000000E+00
(PID.TID 0000.0001)     ;
(PID.TID 0000.0001) SEAICE_salinityTracer = /* test SITR varia. salinity */
(PID.TID 0000.0001)                   F
(PID.TID 0000.0001)     ;
(PID.TID 0000.0001) SEAICEuseFlooding = /* turn submerged snow into ice */
(PID.TID 0000.0001)                   T
(PID.TID 0000.0001)     ;
(PID.TID 0000.0001) 
(PID.TID 0000.0001)    Seaice air-sea fluxes configuration,   > START <
(PID.TID 0000.0001)    -----------------------------------------------
(PID.TID 0000.0001) SEAICEheatConsFix  = /* accound for ocn<->seaice advect. heat flux */
(PID.TID 0000.0001)                   F
(PID.TID 0000.0001)     ;
(PID.TID 0000.0001) SEAICE_multDim    = /* number of ice categories (1 or 7) */
(PID.TID 0000.0001)                       7
(PID.TID 0000.0001)     ;
(PID.TID 0000.0001) IMAX_TICE         = /* iterations for ice surface temp */
(PID.TID 0000.0001)                      10
(PID.TID 0000.0001)     ;
(PID.TID 0000.0001) postSolvTempIter= /* flux calculation after surf. temp iter */
(PID.TID 0000.0001)                       2
(PID.TID 0000.0001)     ;
(PID.TID 0000.0001) SEAICE_dryIceAlb  = /* winter albedo */
(PID.TID 0000.0001)                 7.500000000000000E-01
(PID.TID 0000.0001)     ;
(PID.TID 0000.0001) SEAICE_wetIceAlb  = /* summer albedo */
(PID.TID 0000.0001)                 6.600000000000000E-01
(PID.TID 0000.0001)     ;
(PID.TID 0000.0001) SEAICE_drySnowAlb = /* dry snow albedo */
(PID.TID 0000.0001)                 8.400000000000000E-01
(PID.TID 0000.0001)     ;
(PID.TID 0000.0001) SEAICE_wetSnowAlb = /* wet snow albedo */
(PID.TID 0000.0001)                 7.000000000000000E-01
(PID.TID 0000.0001)     ;
(PID.TID 0000.0001) SEAICE_dryIceAlb_south = /* Southern Ocean dryIceAlb */
(PID.TID 0000.0001)                 7.500000000000000E-01
(PID.TID 0000.0001)     ;
(PID.TID 0000.0001) SEAICE_wetIceAlb_south = /* Southern Ocean wetIceAlb */
(PID.TID 0000.0001)                 6.600000000000000E-01
(PID.TID 0000.0001)     ;
(PID.TID 0000.0001) SEAICE_drySnowAlb_south= /* Southern Ocean drySnowAlb */
(PID.TID 0000.0001)                 8.400000000000000E-01
(PID.TID 0000.0001)     ;
(PID.TID 0000.0001) SEAICE_wetSnowAlb_south= /* Southern Ocean wetSnowAlb */
(PID.TID 0000.0001)                 7.000000000000000E-01
(PID.TID 0000.0001)     ;
(PID.TID 0000.0001) SEAICE_wetAlbTemp= /* Temp (o.C) threshold for wet-albedo */
(PID.TID 0000.0001)                 0.000000000000000E+00
(PID.TID 0000.0001)     ;
(PID.TID 0000.0001) SEAICE_snow_emiss = /* snow emissivity */
(PID.TID 0000.0001)                 9.500000000000000E-01
(PID.TID 0000.0001)     ;
(PID.TID 0000.0001) SEAICE_ice_emiss = /* seaice emissivity */
(PID.TID 0000.0001)                 9.500000000000000E-01
(PID.TID 0000.0001)     ;
(PID.TID 0000.0001) SEAICE_cpAir      = /* heat capacity of air */
(PID.TID 0000.0001)                 1.005000000000000E+03
(PID.TID 0000.0001)     ;
(PID.TID 0000.0001) SEAICE_dalton     = /* constant dalton number */
(PID.TID 0000.0001)                 1.750000000000000E-03
(PID.TID 0000.0001)     ;
(PID.TID 0000.0001) SEAICE_iceConduct = /* sea-ice conductivity */
(PID.TID 0000.0001)                 2.165600000000000E+00
(PID.TID 0000.0001)     ;
(PID.TID 0000.0001) SEAICE_snowConduct= /* snow conductivity */
(PID.TID 0000.0001)                 3.100000000000000E-01
(PID.TID 0000.0001)     ;
(PID.TID 0000.0001) SEAICE_snowThick  = /* cutoff snow thickness (for albedo) */
(PID.TID 0000.0001)                 1.500000000000000E-01
(PID.TID 0000.0001)     ;
(PID.TID 0000.0001) SEAICE_shortwave  = /* penetration shortwave radiation */
(PID.TID 0000.0001)                 3.000000000000000E-01
(PID.TID 0000.0001)     ;
(PID.TID 0000.0001) useMaykutSatVapPoly = /* use Maykut Polynomial for Sat.Vap.Pr */
(PID.TID 0000.0001)                   F
(PID.TID 0000.0001)     ;
(PID.TID 0000.0001) MIN_ATEMP         = /* minimum air temperature */
(PID.TID 0000.0001)                -5.000000000000000E+01
(PID.TID 0000.0001)     ;
(PID.TID 0000.0001) MIN_LWDOWN        = /* minimum downward longwave */
(PID.TID 0000.0001)                 6.000000000000000E+01
(PID.TID 0000.0001)     ;
(PID.TID 0000.0001) MIN_TICE          = /* minimum ice temperature */
(PID.TID 0000.0001)                -5.000000000000000E+01
(PID.TID 0000.0001)     ;
(PID.TID 0000.0001) 
(PID.TID 0000.0001)    Seaice initialization and IO config.,   > START <
(PID.TID 0000.0001)    -------------------------------------------------
(PID.TID 0000.0001) SEAICE_initialHEFF= /* initial sea-ice thickness */
(PID.TID 0000.0001)                 0.000000000000000E+00
(PID.TID 0000.0001)     ;
(PID.TID 0000.0001) AreaFile = /* Initial ice concentration File */
(PID.TID 0000.0001)               ''
(PID.TID 0000.0001)     ;
(PID.TID 0000.0001) HeffFile = /* Initial effective ice thickness File */
(PID.TID 0000.0001)               ''
(PID.TID 0000.0001)     ;
(PID.TID 0000.0001) HsnowFile = /* Initial snow thickness File */
(PID.TID 0000.0001)               ''
(PID.TID 0000.0001)     ;
(PID.TID 0000.0001) uIceFile = /* Initial U-ice velocity File */
(PID.TID 0000.0001)               ''
(PID.TID 0000.0001)     ;
(PID.TID 0000.0001) vIceFile = /* Initial V-ice velocity File */
(PID.TID 0000.0001)               ''
(PID.TID 0000.0001)     ;
(PID.TID 0000.0001) SEAICEwriteState  = /* write sea ice state to file */
(PID.TID 0000.0001)                   T
(PID.TID 0000.0001)     ;
(PID.TID 0000.0001) SEAICE_monFreq  = /* monitor frequency */
(PID.TID 0000.0001)                 1.200000000000000E+03
(PID.TID 0000.0001)     ;
(PID.TID 0000.0001) SEAICE_dumpFreq   = /* dump frequency */
(PID.TID 0000.0001)                 0.000000000000000E+00
(PID.TID 0000.0001)     ;
(PID.TID 0000.0001) SEAICE_taveFreq   = /* time-averaging frequency */
(PID.TID 0000.0001)                 0.000000000000000E+00
(PID.TID 0000.0001)     ;
(PID.TID 0000.0001) SEAICE_mon_stdio  = /* write monitor to std-outp */
(PID.TID 0000.0001)                   T
(PID.TID 0000.0001)     ;
(PID.TID 0000.0001) SEAICE_dump_mdsio = /* write snap-shot   using MDSIO */
(PID.TID 0000.0001)                   T
(PID.TID 0000.0001)     ;
(PID.TID 0000.0001) SEAICE_tave_mdsio = /* write TimeAverage using MDSIO */
(PID.TID 0000.0001)                   T
(PID.TID 0000.0001)     ;
(PID.TID 0000.0001) SItrNumInUse = /* number of tracers that are in use (<SItrMaxNum) */
(PID.TID 0000.0001)                       2
(PID.TID 0000.0001)     ;
(PID.TID 0000.0001) == SItracer no.   1 is in use and defined as
(PID.TID 0000.0001)   -- SItrMate = /* tracer of HEFF or AREA */
(PID.TID 0000.0001)               'AREA'
(PID.TID 0000.0001)     ;
(PID.TID 0000.0001)   -- SItrName = /* tracer name*/
(PID.TID 0000.0001)               'age'
(PID.TID 0000.0001)     ;
(PID.TID 0000.0001)   -- SItrNameLong = /* tracer long name*/
(PID.TID 0000.0001)               ''
(PID.TID 0000.0001)     ;
(PID.TID 0000.0001)   -- SItrFile = /* tracer initial condition file */
(PID.TID 0000.0001)               ''
(PID.TID 0000.0001)     ;
(PID.TID 0000.0001)   -- SItrUnit = /* tracer unit */
(PID.TID 0000.0001)               's'
(PID.TID 0000.0001)     ;
(PID.TID 0000.0001)   -- SItrFromOcean0 = /* for new ice from freeze */
(PID.TID 0000.0001)                 0.000000000000000E+00
(PID.TID 0000.0001)     ;
(PID.TID 0000.0001)   -- SItrFromOceanFrac = /* for new ice from freeze */
(PID.TID 0000.0001)                 0.000000000000000E+00
(PID.TID 0000.0001)     ;
(PID.TID 0000.0001)   -- SItrFromFlood0 = /* for new ice from freeze */
(PID.TID 0000.0001)                 0.000000000000000E+00
(PID.TID 0000.0001)     ;
(PID.TID 0000.0001)   -- SItrFromFloodFrac = /* for new ice from freeze */
(PID.TID 0000.0001)                 0.000000000000000E+00
(PID.TID 0000.0001)     ;
(PID.TID 0000.0001)   -- SItrExpand0 = /* for ice cover thermo. expans. */
(PID.TID 0000.0001)                 0.000000000000000E+00
(PID.TID 0000.0001)     ;
(PID.TID 0000.0001) == SItracer no.   2 is in use and defined as
(PID.TID 0000.0001)   -- SItrMate = /* tracer of HEFF or AREA */
(PID.TID 0000.0001)               'HEFF'
(PID.TID 0000.0001)     ;
(PID.TID 0000.0001)   -- SItrName = /* tracer name*/
(PID.TID 0000.0001)               'one'
(PID.TID 0000.0001)     ;
(PID.TID 0000.0001)   -- SItrNameLong = /* tracer long name*/
(PID.TID 0000.0001)               ''
(PID.TID 0000.0001)     ;
(PID.TID 0000.0001)   -- SItrFile = /* tracer initial condition file */
(PID.TID 0000.0001)               ''
(PID.TID 0000.0001)     ;
(PID.TID 0000.0001)   -- SItrUnit = /* tracer unit */
(PID.TID 0000.0001)               ''
(PID.TID 0000.0001)     ;
(PID.TID 0000.0001)   -- SItrFromOcean0 = /* for new ice from freeze */
(PID.TID 0000.0001)                 1.000000000000000E+00
(PID.TID 0000.0001)     ;
(PID.TID 0000.0001)   -- SItrFromOceanFrac = /* for new ice from freeze */
(PID.TID 0000.0001)                 0.000000000000000E+00
(PID.TID 0000.0001)     ;
(PID.TID 0000.0001)   -- SItrFromFlood0 = /* for new ice from freeze */
(PID.TID 0000.0001)                 1.000000000000000E+00
(PID.TID 0000.0001)     ;
(PID.TID 0000.0001)   -- SItrFromFloodFrac = /* for new ice from freeze */
(PID.TID 0000.0001)                 0.000000000000000E+00
(PID.TID 0000.0001)     ;
(PID.TID 0000.0001)   -- SItrExpand0 = /* for ice cover thermo. expans. */
(PID.TID 0000.0001)                 1.000000000000000E+00
(PID.TID 0000.0001)     ;
(PID.TID 0000.0001) 
(PID.TID 0000.0001)    Seaice regularization numbers,   > START <
(PID.TID 0000.0001)    -----------------------------------------------
(PID.TID 0000.0001) SEAICE_EPS        = /* reduce derivative singularities */
(PID.TID 0000.0001)                 1.000000000000000E-10
(PID.TID 0000.0001)     ;
(PID.TID 0000.0001) SEAICE_EPS_SQ     = /* reduce derivative singularities */
(PID.TID 0000.0001)                 1.000000000000000E-20
(PID.TID 0000.0001)     ;
(PID.TID 0000.0001) SEAICE_area_reg   = /* reduce derivative singularities */
(PID.TID 0000.0001)                 1.000000000000000E-05
(PID.TID 0000.0001)     ;
(PID.TID 0000.0001) SEAICE_hice_reg   = /* reduce derivative singularities */
(PID.TID 0000.0001)                 5.000000000000000E-02
(PID.TID 0000.0001)     ;
(PID.TID 0000.0001) SEAICE_area_floor = /* reduce derivative singularities */
(PID.TID 0000.0001)                 1.000000000000000E-05
(PID.TID 0000.0001)     ;
(PID.TID 0000.0001) 
(PID.TID 0000.0001) // =======================================================
(PID.TID 0000.0001) // Seaice configuration (SEAICE_PARM01) >>> END <<<
(PID.TID 0000.0001) // =======================================================
(PID.TID 0000.0001) 
(PID.TID 0000.0001) ------------------------------------------------------------
(PID.TID 0000.0001) DIAGNOSTICS_SET_LEVELS: done
(PID.TID 0000.0001)  Total Nb of available Diagnostics: ndiagt=  1656
(PID.TID 0000.0001)  write list of available Diagnostics to file: available_diagnostics.log
(PID.TID 0000.0001) SETDIAG: Allocate 24 x  1 Levels for Diagnostic #    26 THETA
(PID.TID 0000.0001) SETDIAG: Allocate 24 x  1 Levels for Diagnostic #    29 SALTanom
(PID.TID 0000.0001) SETDIAG: Allocate  1 x  1 Levels for Diagnostic #  1585 SIarea
(PID.TID 0000.0001) SETDIAG: Allocate  1 x  1 Levels for Diagnostic #  1588 SIheff
(PID.TID 0000.0001) SETDIAG: Allocate  1 x  1 Levels for Diagnostic #  1590 SIhsnow
(PID.TID 0000.0001) SETDIAG: Allocate  1 x  1 Levels for Diagnostic #  1605 SIqsw
(PID.TID 0000.0001) SETDIAG: Allocate 24 x  1 Levels for Diagnostic #  1497 PAR
(PID.TID 0000.0001) SETDIAG: Allocate 24 x  1 Levels for Diagnostic #  1498 PP
(PID.TID 0000.0001) SETDIAG: Allocate 24 x  1 Levels for Diagnostic #  1499 Nfix
(PID.TID 0000.0001) SETDIAG: Allocate 24 x  1 Levels for Diagnostic #   209 TRAC01
(PID.TID 0000.0001) SETDIAG: Allocate 24 x  1 Levels for Diagnostic #   222 TRAC02
(PID.TID 0000.0001) SETDIAG: Allocate 24 x  1 Levels for Diagnostic #   235 TRAC03
(PID.TID 0000.0001) SETDIAG: Allocate 24 x  1 Levels for Diagnostic #   248 TRAC04
(PID.TID 0000.0001) SETDIAG: Allocate 24 x  1 Levels for Diagnostic #   261 TRAC05
(PID.TID 0000.0001) SETDIAG: Allocate 24 x  1 Levels for Diagnostic #   274 TRAC06
(PID.TID 0000.0001) SETDIAG: Allocate 24 x  1 Levels for Diagnostic #   287 TRAC07
(PID.TID 0000.0001) SETDIAG: Allocate 24 x  1 Levels for Diagnostic #   300 TRAC08
(PID.TID 0000.0001) SETDIAG: Allocate 24 x  1 Levels for Diagnostic #   313 TRAC09
(PID.TID 0000.0001) SETDIAG: Allocate 24 x  1 Levels for Diagnostic #   326 TRAC10
(PID.TID 0000.0001) SETDIAG: Allocate 24 x  1 Levels for Diagnostic #   339 TRAC11
(PID.TID 0000.0001) SETDIAG: Allocate 24 x  1 Levels for Diagnostic #   352 TRAC12
(PID.TID 0000.0001) SETDIAG: Allocate 24 x  1 Levels for Diagnostic #   365 TRAC13
(PID.TID 0000.0001) SETDIAG: Allocate 24 x  1 Levels for Diagnostic #   378 TRAC14
(PID.TID 0000.0001) SETDIAG: Allocate 24 x  1 Levels for Diagnostic #   391 TRAC15
(PID.TID 0000.0001) SETDIAG: Allocate 24 x  1 Levels for Diagnostic #   404 TRAC16
(PID.TID 0000.0001) SETDIAG: Allocate 24 x  1 Levels for Diagnostic #   417 TRAC17
(PID.TID 0000.0001) SETDIAG: Allocate 24 x  1 Levels for Diagnostic #   430 TRAC18
(PID.TID 0000.0001) SETDIAG: Allocate 24 x  1 Levels for Diagnostic #   443 TRAC19
(PID.TID 0000.0001) SETDIAG: Allocate 24 x  1 Levels for Diagnostic #   456 TRAC20
(PID.TID 0000.0001) SETDIAG: Allocate 24 x  1 Levels for Diagnostic #   469 TRAC21
(PID.TID 0000.0001) SETDIAG: Allocate 24 x  1 Levels for Diagnostic #   482 TRAC22
(PID.TID 0000.0001) SETDIAG: Allocate 24 x  1 Levels for Diagnostic #   495 TRAC23
(PID.TID 0000.0001) SETDIAG: Allocate 24 x  1 Levels for Diagnostic #   508 TRAC24
(PID.TID 0000.0001) SETDIAG: Allocate 24 x  1 Levels for Diagnostic #   521 TRAC25
(PID.TID 0000.0001) SETDIAG: Allocate 24 x  1 Levels for Diagnostic #   534 TRAC26
(PID.TID 0000.0001) SETDIAG: Allocate 24 x  1 Levels for Diagnostic #   547 TRAC27
(PID.TID 0000.0001) SETDIAG: Allocate 24 x  1 Levels for Diagnostic #   560 TRAC28
(PID.TID 0000.0001) SETDIAG: Allocate 24 x  1 Levels for Diagnostic #   573 TRAC29
(PID.TID 0000.0001) SETDIAG: Allocate 24 x  1 Levels for Diagnostic #   586 TRAC30
(PID.TID 0000.0001) SETDIAG: Allocate 24 x  1 Levels for Diagnostic #   599 TRAC31
(PID.TID 0000.0001) SETDIAG: Allocate 24 x  1 Levels for Diagnostic #   612 TRAC32
(PID.TID 0000.0001) SETDIAG: Allocate 24 x  1 Levels for Diagnostic #   625 TRAC33
(PID.TID 0000.0001) SETDIAG: Allocate 24 x  1 Levels for Diagnostic #   638 TRAC34
(PID.TID 0000.0001) SETDIAG: Allocate 24 x  1 Levels for Diagnostic #   651 TRAC35
(PID.TID 0000.0001) SETDIAG: Allocate 24 x  1 Levels for Diagnostic #   664 TRAC36
(PID.TID 0000.0001) SETDIAG: Allocate 24 x  1 Levels for Diagnostic #   677 TRAC37
(PID.TID 0000.0001) SETDIAG: Allocate 24 x  1 Levels for Diagnostic #   690 TRAC38
(PID.TID 0000.0001) SETDIAG: Allocate 24 x  1 Levels for Diagnostic #   703 TRAC39
(PID.TID 0000.0001) SETDIAG: Allocate 24 x  1 Levels for Diagnostic #   716 TRAC40
(PID.TID 0000.0001) SETDIAG: Allocate 24 x  1 Levels for Diagnostic #   729 TRAC41
(PID.TID 0000.0001) SETDIAG: Allocate 24 x  1 Levels for Diagnostic #   742 TRAC42
(PID.TID 0000.0001) SETDIAG: Allocate 24 x  1 Levels for Diagnostic #   755 TRAC43
(PID.TID 0000.0001) SETDIAG: Allocate 24 x  1 Levels for Diagnostic #   768 TRAC44
(PID.TID 0000.0001) SETDIAG: Allocate 24 x  1 Levels for Diagnostic #   781 TRAC45
(PID.TID 0000.0001) SETDIAG: Allocate 24 x  1 Levels for Diagnostic #   794 TRAC46
(PID.TID 0000.0001) SETDIAG: Allocate 24 x  1 Levels for Diagnostic #   807 TRAC47
(PID.TID 0000.0001) SETDIAG: Allocate 24 x  1 Levels for Diagnostic #   820 TRAC48
(PID.TID 0000.0001) SETDIAG: Allocate 24 x  1 Levels for Diagnostic #   833 TRAC49
(PID.TID 0000.0001) SETDIAG: Allocate 24 x  1 Levels for Diagnostic #   846 TRAC50
(PID.TID 0000.0001) SETDIAG: Allocate 24 x  1 Levels for Diagnostic #   859 TRAC51
(PID.TID 0000.0001) SETDIAG: Allocate 24 x  1 Levels for Diagnostic #   872 TRAC52
(PID.TID 0000.0001) SETDIAG: Allocate 24 x  1 Levels for Diagnostic #   885 TRAC53
(PID.TID 0000.0001) SETDIAG: Allocate 24 x  1 Levels for Diagnostic #   898 TRAC54
(PID.TID 0000.0001) SETDIAG: Allocate 24 x  1 Levels for Diagnostic #   911 TRAC55
(PID.TID 0000.0001) SETDIAG: Allocate 24 x  1 Levels for Diagnostic #   924 TRAC56
(PID.TID 0000.0001) SETDIAG: Allocate 24 x  1 Levels for Diagnostic #   937 TRAC57
(PID.TID 0000.0001) SETDIAG: Allocate 24 x  1 Levels for Diagnostic #   950 TRAC58
(PID.TID 0000.0001) SETDIAG: Allocate 24 x  1 Levels for Diagnostic #   963 TRAC59
(PID.TID 0000.0001) SETDIAG: Allocate 24 x  1 Levels for Diagnostic #   976 TRAC60
(PID.TID 0000.0001) SETDIAG: Allocate 24 x  1 Levels for Diagnostic #   989 TRAC61
(PID.TID 0000.0001) SETDIAG: Allocate 24 x  1 Levels for Diagnostic #  1002 TRAC62
(PID.TID 0000.0001) SETDIAG: Allocate 24 x  1 Levels for Diagnostic #  1015 TRAC63
(PID.TID 0000.0001) SETDIAG: Allocate 24 x  1 Levels for Diagnostic #  1028 TRAC64
(PID.TID 0000.0001) SETDIAG: Allocate 24 x  1 Levels for Diagnostic #  1041 TRAC65
(PID.TID 0000.0001) SETDIAG: Allocate 24 x  1 Levels for Diagnostic #  1054 TRAC66
(PID.TID 0000.0001) SETDIAG: Allocate 24 x  1 Levels for Diagnostic #  1067 TRAC67
(PID.TID 0000.0001) SETDIAG: Allocate 24 x  1 Levels for Diagnostic #  1080 TRAC68
(PID.TID 0000.0001) SETDIAG: Allocate 24 x  1 Levels for Diagnostic #  1093 TRAC69
(PID.TID 0000.0001) SETDIAG: Allocate 24 x  1 Levels for Diagnostic #  1106 TRAC70
(PID.TID 0000.0001) SETDIAG: Allocate 24 x  1 Levels for Diagnostic #  1119 TRAC71
(PID.TID 0000.0001) SETDIAG: Allocate 24 x  1 Levels for Diagnostic #  1132 TRAC72
(PID.TID 0000.0001) SETDIAG: Allocate 24 x  1 Levels for Diagnostic #  1145 TRAC73
(PID.TID 0000.0001) SETDIAG: Allocate 24 x  1 Levels for Diagnostic #  1158 TRAC74
(PID.TID 0000.0001) SETDIAG: Allocate 24 x  1 Levels for Diagnostic #  1171 TRAC75
(PID.TID 0000.0001) SETDIAG: Allocate 24 x  1 Levels for Diagnostic #  1184 TRAC76
(PID.TID 0000.0001) SETDIAG: Allocate 24 x  1 Levels for Diagnostic #  1197 TRAC77
(PID.TID 0000.0001) SETDIAG: Allocate 24 x  1 Levels for Diagnostic #  1210 TRAC78
(PID.TID 0000.0001) SETDIAG: Allocate 24 x  1 Levels for Diagnostic #  1223 TRAC79
(PID.TID 0000.0001) SETDIAG: Allocate 24 x  1 Levels for Diagnostic #  1236 TRAC80
(PID.TID 0000.0001) SETDIAG: Allocate 24 x  1 Levels for Diagnostic #  1249 TRAC81
(PID.TID 0000.0001) SETDIAG: Allocate 24 x  1 Levels for Diagnostic #  1262 TRAC82
(PID.TID 0000.0001) SETDIAG: Allocate 24 x  1 Levels for Diagnostic #  1275 TRAC83
(PID.TID 0000.0001) SETDIAG: Allocate 24 x  1 Levels for Diagnostic #  1288 TRAC84
(PID.TID 0000.0001) SETDIAG: Allocate 24 x  1 Levels for Diagnostic #  1301 TRAC85
(PID.TID 0000.0001) SETDIAG: Allocate 24 x  1 Levels for Diagnostic #  1314 TRAC86
(PID.TID 0000.0001) SETDIAG: Allocate 24 x  1 Levels for Diagnostic #  1327 TRAC87
(PID.TID 0000.0001) SETDIAG: Allocate 24 x  1 Levels for Diagnostic #  1340 TRAC88
(PID.TID 0000.0001) SETDIAG: Allocate 24 x  1 Levels for Diagnostic #  1353 TRAC89
(PID.TID 0000.0001) SETDIAG: Allocate 24 x  1 Levels for Diagnostic #  1366 TRAC90
(PID.TID 0000.0001) SETDIAG: Allocate 24 x  1 Levels for Diagnostic #  1379 TRAC91
(PID.TID 0000.0001) SETDIAG: Allocate 24 x  1 Levels for Diagnostic #  1392 TRAC92
(PID.TID 0000.0001) SETDIAG: Allocate 24 x  1 Levels for Diagnostic #  1405 TRAC93
(PID.TID 0000.0001) SETDIAG: Allocate 24 x  1 Levels for Diagnostic #  1418 TRAC94
(PID.TID 0000.0001) SETDIAG: Allocate 24 x  1 Levels for Diagnostic #  1431 TRAC95
(PID.TID 0000.0001) SETDIAG: Allocate 24 x  1 Levels for Diagnostic #  1444 TRAC96
(PID.TID 0000.0001) SETDIAG: Allocate 24 x  1 Levels for Diagnostic #  1457 TRAC97
(PID.TID 0000.0001) SETDIAG: Allocate 24 x  1 Levels for Diagnostic #  1470 TRAC98
(PID.TID 0000.0001) SETDIAG: Allocate 24 x  1 Levels for Diagnostic #  1483 TRAC99
(PID.TID 0000.0001) SETDIAG: Allocate 24 x  1 Levels for Diagnostic #  1579 Diver1
(PID.TID 0000.0001) SETDIAG: Allocate 24 x  1 Levels for Diagnostic #  1580 Diver2
(PID.TID 0000.0001) SETDIAG: Allocate 24 x  1 Levels for Diagnostic #  1581 Diver3
(PID.TID 0000.0001) SETDIAG: Allocate 24 x  1 Levels for Diagnostic #  1582 Diver4
(PID.TID 0000.0001) SETDIAG: Allocate 24 x  1 Levels for Diagnostic #  1583 Shannon
(PID.TID 0000.0001) SETDIAG: Allocate 24 x  1 Levels for Diagnostic #  1584 Simpson
(PID.TID 0000.0001)   space allocated for all diagnostics:    2644 levels
(PID.TID 0000.0001) DIAGNOSTICS_SET_POINTERS: Set levels for Outp.Stream: THETA_day
(PID.TID 0000.0001)  Levels:       1.   2.   3.   4.   5.   6.   7.   8.   9.  10.  11.  12.  13.  14.  15.  16.  17.  18.  19.  20.
(PID.TID 0000.0001)  Levels:      21.  22.  23.  24.
(PID.TID 0000.0001) DIAGNOSTICS_SET_POINTERS: Set levels for Outp.Stream: SALTanom_day
(PID.TID 0000.0001)  Levels:       1.   2.   3.   4.   5.   6.   7.   8.   9.  10.  11.  12.  13.  14.  15.  16.  17.  18.  19.  20.
(PID.TID 0000.0001)  Levels:      21.  22.  23.  24.
(PID.TID 0000.0001) DIAGNOSTICS_SET_POINTERS: Set levels for Outp.Stream: SIarea_day
(PID.TID 0000.0001)  Levels:       1.
(PID.TID 0000.0001) DIAGNOSTICS_SET_POINTERS: Set levels for Outp.Stream: SIheff_day
(PID.TID 0000.0001)  Levels:       1.
(PID.TID 0000.0001) DIAGNOSTICS_SET_POINTERS: Set levels for Outp.Stream: SIhsnow_day
(PID.TID 0000.0001)  Levels:       1.
(PID.TID 0000.0001) DIAGNOSTICS_SET_POINTERS: Set levels for Outp.Stream: SIqsw_day
(PID.TID 0000.0001)  Levels:       1.
(PID.TID 0000.0001) DIAGNOSTICS_SET_POINTERS: Set levels for Outp.Stream: PAR_day
(PID.TID 0000.0001)  Levels:       1.   2.   3.   4.   5.   6.   7.   8.   9.  10.  11.  12.  13.  14.  15.  16.  17.  18.  19.  20.
(PID.TID 0000.0001)  Levels:      21.  22.  23.  24.
(PID.TID 0000.0001) DIAGNOSTICS_SET_POINTERS: Set levels for Outp.Stream: PP_day
(PID.TID 0000.0001)  Levels:       1.   2.   3.   4.   5.   6.   7.   8.   9.  10.  11.  12.  13.  14.  15.  16.  17.  18.  19.  20.
(PID.TID 0000.0001)  Levels:      21.  22.  23.  24.
(PID.TID 0000.0001) DIAGNOSTICS_SET_POINTERS: Set levels for Outp.Stream: Nfix_day
(PID.TID 0000.0001)  Levels:       1.   2.   3.   4.   5.   6.   7.   8.   9.  10.  11.  12.  13.  14.  15.  16.  17.  18.  19.  20.
(PID.TID 0000.0001)  Levels:      21.  22.  23.  24.
(PID.TID 0000.0001) DIAGNOSTICS_SET_POINTERS: Set levels for Outp.Stream: ptracers
(PID.TID 0000.0001)  Levels:       1.   2.   3.   4.   5.   6.   7.   8.   9.  10.  11.  12.  13.  14.  15.  16.  17.  18.  19.  20.
(PID.TID 0000.0001)  Levels:      21.  22.  23.  24.
(PID.TID 0000.0001) DIAGNOSTICS_SET_POINTERS: Set levels for Outp.Stream: Diver1
(PID.TID 0000.0001)  Levels:       1.   2.   3.   4.   5.   6.   7.   8.   9.  10.  11.  12.  13.  14.  15.  16.  17.  18.  19.  20.
(PID.TID 0000.0001)  Levels:      21.  22.  23.  24.
(PID.TID 0000.0001) DIAGNOSTICS_SET_POINTERS: Set levels for Outp.Stream: Diver2
(PID.TID 0000.0001)  Levels:       1.   2.   3.   4.   5.   6.   7.   8.   9.  10.  11.  12.  13.  14.  15.  16.  17.  18.  19.  20.
(PID.TID 0000.0001)  Levels:      21.  22.  23.  24.
(PID.TID 0000.0001) DIAGNOSTICS_SET_POINTERS: Set levels for Outp.Stream: Diver3
(PID.TID 0000.0001)  Levels:       1.   2.   3.   4.   5.   6.   7.   8.   9.  10.  11.  12.  13.  14.  15.  16.  17.  18.  19.  20.
(PID.TID 0000.0001)  Levels:      21.  22.  23.  24.
(PID.TID 0000.0001) DIAGNOSTICS_SET_POINTERS: Set levels for Outp.Stream: Diver4
(PID.TID 0000.0001)  Levels:       1.   2.   3.   4.   5.   6.   7.   8.   9.  10.  11.  12.  13.  14.  15.  16.  17.  18.  19.  20.
(PID.TID 0000.0001)  Levels:      21.  22.  23.  24.
(PID.TID 0000.0001) DIAGNOSTICS_SET_POINTERS: Set levels for Outp.Stream: Shannon
(PID.TID 0000.0001)  Levels:       1.   2.   3.   4.   5.   6.   7.   8.   9.  10.  11.  12.  13.  14.  15.  16.  17.  18.  19.  20.
(PID.TID 0000.0001)  Levels:      21.  22.  23.  24.
(PID.TID 0000.0001) DIAGNOSTICS_SET_POINTERS: Set levels for Outp.Stream: Simpson
(PID.TID 0000.0001)  Levels:       1.   2.   3.   4.   5.   6.   7.   8.   9.  10.  11.  12.  13.  14.  15.  16.  17.  18.  19.  20.
(PID.TID 0000.0001)  Levels:      21.  22.  23.  24.
(PID.TID 0000.0001) DIAGNOSTICS_SET_POINTERS: done
(PID.TID 0000.0001) ------------------------------------------------------------
(PID.TID 0000.0001) DIAGSTATS_SET_REGIONS: define no region
(PID.TID 0000.0001) ------------------------------------------------------------
(PID.TID 0000.0001) SETDIAG: Allocate  1 Levels for Stats-Diag #  1605 SIqsw
(PID.TID 0000.0001) SETDIAG: Allocate  1 Levels for Stats-Diag #    86 oceQsw
(PID.TID 0000.0001) SETDIAG: Allocate 24 Levels for Stats-Diag #  1497 PAR
(PID.TID 0000.0001) SETDIAG: Allocate  1 Levels for Stats-Diag #   176 EXFswnet
(PID.TID 0000.0001) SETDIAG: Allocate  1 Levels for Stats-Diag #   178 EXFswdn
(PID.TID 0000.0001) SETDIAG: Allocate 24 Levels for Stats-Diag #    26 THETA
(PID.TID 0000.0001) SETDIAG: Allocate 24 Levels for Stats-Diag #    29 SALTanom
(PID.TID 0000.0001) SETDIAG: Allocate 24 Levels for Stats-Diag #  1498 PP
(PID.TID 0000.0001) SETDIAG: Allocate 24 Levels for Stats-Diag #  1223 TRAC79
(PID.TID 0000.0001) SETDIAG: Allocate  1 Levels for Stats-Diag #    23 ETAN
(PID.TID 0000.0001) SETDIAG: Allocate 24 Levels for Stats-Diag #   235 TRAC03
(PID.TID 0000.0001) SETDIAG: Allocate 24 Levels for Stats-Diag #  1579 Diver1
(PID.TID 0000.0001) SETDIAG: Allocate 24 Levels for Stats-Diag #  1580 Diver2
(PID.TID 0000.0001) SETDIAG: Allocate 24 Levels for Stats-Diag #  1581 Diver3
(PID.TID 0000.0001) SETDIAG: Allocate 24 Levels for Stats-Diag #  1582 Diver4
(PID.TID 0000.0001) SETDIAG: Allocate 24 Levels for Stats-Diag #  1583 Shannon
(PID.TID 0000.0001) SETDIAG: Allocate 24 Levels for Stats-Diag #  1584 Simpson
(PID.TID 0000.0001)   space allocated for all stats-diags:     293 levels
(PID.TID 0000.0001) DIAGSTATS_SET_POINTERS: done
(PID.TID 0000.0001) ------------------------------------------------------------
(PID.TID 0000.0001) DIAGSTATS_INI_IO: open file: stat_SIqsw.0000188388.txt , unit=     9
(PID.TID 0000.0001) DIAGSTATS_INI_IO: open file: stat_oceQsw.0000188388.txt , unit=    10
(PID.TID 0000.0001) DIAGSTATS_INI_IO: open file: stat_PAR.0000188388.txt , unit=    16
(PID.TID 0000.0001) DIAGSTATS_INI_IO: open file: stat_EXFswnet.0000188388.txt , unit=    17
(PID.TID 0000.0001) DIAGSTATS_INI_IO: open file: stat_EXFswdn.0000188388.txt , unit=    18
(PID.TID 0000.0001) DIAGSTATS_INI_IO: open file: stat_THETA.0000188388.txt , unit=    19
(PID.TID 0000.0001) DIAGSTATS_INI_IO: open file: stat_SALTanom.0000188388.txt , unit=    20
(PID.TID 0000.0001) DIAGSTATS_INI_IO: open file: stat_PP.0000188388.txt , unit=    21
(PID.TID 0000.0001) DIAGSTATS_INI_IO: open file: stat_Phy58.0000188388.txt , unit=    22
(PID.TID 0000.0001) DIAGSTATS_INI_IO: open file: stat_ETAN.0000188388.txt , unit=    23
(PID.TID 0000.0001) DIAGSTATS_INI_IO: open file: stat_FeT.0000188388.txt , unit=    24
(PID.TID 0000.0001) DIAGSTATS_INI_IO: open file: stat_Diver1.0000188388.txt , unit=    25
(PID.TID 0000.0001) DIAGSTATS_INI_IO: open file: stat_Diver2.0000188388.txt , unit=    26
(PID.TID 0000.0001) DIAGSTATS_INI_IO: open file: stat_Diver3.0000188388.txt , unit=    27
(PID.TID 0000.0001) DIAGSTATS_INI_IO: open file: stat_Diver4.0000188388.txt , unit=    28
(PID.TID 0000.0001) DIAGSTATS_INI_IO: open file: stat_Shannon.0000188388.txt , unit=    29
(PID.TID 0000.0001) DIAGSTATS_INI_IO: open file: stat_Simpson.0000188388.txt , unit=    30
(PID.TID 0000.0001) %MON fCori_max                    =   1.3473519476330E-04
(PID.TID 0000.0001) %MON fCori_min                    =   1.1413140759594E-04
(PID.TID 0000.0001) %MON fCori_mean                   =   1.2544553688214E-04
(PID.TID 0000.0001) %MON fCori_sd                     =   5.0297255000290E-06
(PID.TID 0000.0001) %MON fCoriG_max                   =   1.3464029717915E-04
(PID.TID 0000.0001) %MON fCoriG_min                   =   1.1394771627180E-04
(PID.TID 0000.0001) %MON fCoriG_mean                  =   1.2530547026595E-04
(PID.TID 0000.0001) %MON fCoriG_sd                    =   5.0490402546811E-06
(PID.TID 0000.0001) %MON fCoriCos_max                 =   9.0796739781711E-05
(PID.TID 0000.0001) %MON fCoriCos_min                 =   5.5825204405476E-05
(PID.TID 0000.0001) %MON fCoriCos_mean                =   7.3724492265692E-05
(PID.TID 0000.0001) %MON fCoriCos_sd                  =   8.5349008623744E-06
(PID.TID 0000.0001) INI_CG2D: CG2D normalisation factor =  1.3850385103405694E-03
(PID.TID 0000.0001) 
(PID.TID 0000.0001) // =======================================================
(PID.TID 0000.0001) // Model configuration
(PID.TID 0000.0001) // =======================================================
(PID.TID 0000.0001) //
(PID.TID 0000.0001) // "Physical" paramters ( PARM01 in namelist )
(PID.TID 0000.0001) //
(PID.TID 0000.0001) buoyancyRelation = /* Type of relation to get Buoyancy */
(PID.TID 0000.0001)               'OCEANIC'
(PID.TID 0000.0001)     ;
(PID.TID 0000.0001) fluidIsAir   =  /* fluid major constituent is Air */
(PID.TID 0000.0001)                   F
(PID.TID 0000.0001)     ;
(PID.TID 0000.0001) fluidIsWater =  /* fluid major constituent is Water */
(PID.TID 0000.0001)                   T
(PID.TID 0000.0001)     ;
(PID.TID 0000.0001) usingPCoords =  /* use p (or p*) vertical coordinate */
(PID.TID 0000.0001)                   F
(PID.TID 0000.0001)     ;
(PID.TID 0000.0001) usingZCoords =  /* use z (or z*) vertical coordinate */
(PID.TID 0000.0001)                   T
(PID.TID 0000.0001)     ;
(PID.TID 0000.0001) tRef =   /* Reference temperature profile ( oC or K ) */
(PID.TID 0000.0001)     3 @  2.300000000000000E+01,             /* K =  1:  3 */
(PID.TID 0000.0001)     3 @  2.200000000000000E+01,             /* K =  4:  6 */
(PID.TID 0000.0001)                 2.100000000000000E+01,      /* K =  7 */
(PID.TID 0000.0001)     2 @  2.000000000000000E+01,             /* K =  8:  9 */
(PID.TID 0000.0001)                 1.900000000000000E+01,      /* K = 10 */
(PID.TID 0000.0001)     2 @  1.800000000000000E+01,             /* K = 11: 12 */
(PID.TID 0000.0001)                 1.700000000000000E+01,      /* K = 13 */
(PID.TID 0000.0001)     2 @  1.600000000000000E+01,             /* K = 14: 15 */
(PID.TID 0000.0001)                 1.500000000000000E+01,      /* K = 16 */
(PID.TID 0000.0001)                 1.400000000000000E+01,      /* K = 17 */
(PID.TID 0000.0001)                 1.300000000000000E+01,      /* K = 18 */
(PID.TID 0000.0001)                 1.200000000000000E+01,      /* K = 19 */
(PID.TID 0000.0001)                 1.100000000000000E+01,      /* K = 20 */
(PID.TID 0000.0001)     2 @  9.000000000000000E+00,             /* K = 21: 22 */
(PID.TID 0000.0001)                 8.000000000000000E+00,      /* K = 23 */
(PID.TID 0000.0001)                 7.000000000000000E+00       /* K = 24 */
(PID.TID 0000.0001)     ;
(PID.TID 0000.0001) sRef =   /* Reference salinity profile ( psu ) */
(PID.TID 0000.0001)    24 @  3.450000000000000E+01              /* K =  1: 24 */
(PID.TID 0000.0001)     ;
(PID.TID 0000.0001) viscAh  =   /* Lateral eddy viscosity ( m^2/s ) */
(PID.TID 0000.0001)                 0.000000000000000E+00
(PID.TID 0000.0001)     ;
(PID.TID 0000.0001) viscAhMax = /* Maximum lateral eddy viscosity ( m^2/s ) */
(PID.TID 0000.0001)                 1.000000000000000E+21
(PID.TID 0000.0001)     ;
(PID.TID 0000.0001) viscAhGrid = /* Grid dependent lateral eddy viscosity ( non-dim. ) */
(PID.TID 0000.0001)                 0.000000000000000E+00
(PID.TID 0000.0001)     ;
(PID.TID 0000.0001) useFullLeith = /* Use Full Form of Leith Viscosity on/off flag*/
(PID.TID 0000.0001)                   F
(PID.TID 0000.0001)     ;
(PID.TID 0000.0001) useStrainTensionVisc= /* Use StrainTension Form of Viscous Operator flag*/
(PID.TID 0000.0001)                   F
(PID.TID 0000.0001)     ;
(PID.TID 0000.0001) useAreaViscLength = /* Use area for visc length instead of geom. mean*/
(PID.TID 0000.0001)                   T
(PID.TID 0000.0001)     ;
(PID.TID 0000.0001) viscC2leith = /* Leith harmonic visc. factor (on grad(vort),non-dim.) */
(PID.TID 0000.0001)                 0.000000000000000E+00
(PID.TID 0000.0001)     ;
(PID.TID 0000.0001) viscC2leithD = /* Leith harmonic viscosity factor (on grad(div),non-dim.)*/
(PID.TID 0000.0001)                 0.000000000000000E+00
(PID.TID 0000.0001)     ;
(PID.TID 0000.0001) viscC2smag = /* Smagorinsky harmonic viscosity factor (non-dim.) */
(PID.TID 0000.0001)                 0.000000000000000E+00
(PID.TID 0000.0001)     ;
(PID.TID 0000.0001) viscA4  =   /* Lateral biharmonic viscosity ( m^4/s ) */
(PID.TID 0000.0001)                 0.000000000000000E+00
(PID.TID 0000.0001)     ;
(PID.TID 0000.0001) viscA4Max = /* Maximum biharmonic viscosity ( m^2/s ) */
(PID.TID 0000.0001)                 1.000000000000000E+21
(PID.TID 0000.0001)     ;
(PID.TID 0000.0001) viscA4Grid = /* Grid dependent biharmonic viscosity ( non-dim. ) */
(PID.TID 0000.0001)                 0.000000000000000E+00
(PID.TID 0000.0001)     ;
(PID.TID 0000.0001) viscC4leith = /* Leith biharm viscosity factor (on grad(vort), non-dim.)*/
(PID.TID 0000.0001)                 1.500000000000000E+00
(PID.TID 0000.0001)     ;
(PID.TID 0000.0001) viscC4leithD = /* Leith biharm viscosity factor (on grad(div), non-dim.) */
(PID.TID 0000.0001)                 1.500000000000000E+00
(PID.TID 0000.0001)     ;
(PID.TID 0000.0001) viscC4Smag = /* Smagorinsky biharm viscosity factor (non-dim) */
(PID.TID 0000.0001)                 0.000000000000000E+00
(PID.TID 0000.0001)     ;
(PID.TID 0000.0001) no_slip_sides =  /* Viscous BCs: No-slip sides */
(PID.TID 0000.0001)                   F
(PID.TID 0000.0001)     ;
(PID.TID 0000.0001) sideDragFactor = /* side-drag scaling factor (non-dim) */
(PID.TID 0000.0001)                 0.000000000000000E+00
(PID.TID 0000.0001)     ;
(PID.TID 0000.0001) viscArNr = /* vertical profile of vertical viscosity ( m^2/s )*/
(PID.TID 0000.0001)    24 @  6.082600000000000E-04              /* K =  1: 24 */
(PID.TID 0000.0001)     ;
(PID.TID 0000.0001) no_slip_bottom =  /* Viscous BCs: No-slip bottom */
(PID.TID 0000.0001)                   T
(PID.TID 0000.0001)     ;
(PID.TID 0000.0001) bottomDragLinear = /* linear bottom-drag coefficient ( m/s ) */
(PID.TID 0000.0001)                 0.000000000000000E+00
(PID.TID 0000.0001)     ;
(PID.TID 0000.0001) bottomDragQuadratic = /* quadratic bottom-drag coefficient (-) */
(PID.TID 0000.0001)                 2.000000000000000E-03
(PID.TID 0000.0001)     ;
(PID.TID 0000.0001) diffKhT =   /* Laplacian diffusion of heat laterally ( m^2/s ) */
(PID.TID 0000.0001)                 0.000000000000000E+00
(PID.TID 0000.0001)     ;
(PID.TID 0000.0001) diffK4T =   /* Biharmonic diffusion of heat laterally ( m^4/s ) */
(PID.TID 0000.0001)                 0.000000000000000E+00
(PID.TID 0000.0001)     ;
(PID.TID 0000.0001) diffKhS =   /* Laplacian diffusion of salt laterally ( m^2/s ) */
(PID.TID 0000.0001)                 0.000000000000000E+00
(PID.TID 0000.0001)     ;
(PID.TID 0000.0001) diffK4S =   /* Biharmonic diffusion of salt laterally ( m^4/s ) */
(PID.TID 0000.0001)                 0.000000000000000E+00
(PID.TID 0000.0001)     ;
(PID.TID 0000.0001) diffKrNrT = /* vertical profile of vertical diffusion of Temp ( m^2/s )*/
(PID.TID 0000.0001)    24 @  1.000000000000000E-06              /* K =  1: 24 */
(PID.TID 0000.0001)     ;
(PID.TID 0000.0001) diffKrNrS = /* vertical profile of vertical diffusion of Salt ( m^2/s )*/
(PID.TID 0000.0001)    24 @  1.000000000000000E-06              /* K =  1: 24 */
(PID.TID 0000.0001)     ;
(PID.TID 0000.0001) diffKrBL79surf = /* Surface diffusion for Bryan and Lewis 79 ( m^2/s ) */
(PID.TID 0000.0001)                 0.000000000000000E+00
(PID.TID 0000.0001)     ;
(PID.TID 0000.0001) diffKrBL79deep = /* Deep diffusion for Bryan and Lewis 1979 ( m^2/s ) */
(PID.TID 0000.0001)                 0.000000000000000E+00
(PID.TID 0000.0001)     ;
(PID.TID 0000.0001) diffKrBL79scl = /* Depth scale for Bryan and Lewis 1979 ( m ) */
(PID.TID 0000.0001)                 2.000000000000000E+02
(PID.TID 0000.0001)     ;
(PID.TID 0000.0001) diffKrBL79Ho = /* Turning depth for Bryan and Lewis 1979 ( m ) */
(PID.TID 0000.0001)                -2.000000000000000E+03
(PID.TID 0000.0001)     ;
(PID.TID 0000.0001) ivdc_kappa = /* Implicit Vertical Diffusivity for Convection ( m^2/s) */
(PID.TID 0000.0001)                 0.000000000000000E+00
(PID.TID 0000.0001)     ;
(PID.TID 0000.0001) hMixCriteria=  /* Criteria for mixed-layer diagnostic */
(PID.TID 0000.0001)                -8.000000000000000E-01
(PID.TID 0000.0001)     ;
(PID.TID 0000.0001) dRhoSmall =  /* Parameter for mixed-layer diagnostic */
(PID.TID 0000.0001)                 1.000000000000000E-06
(PID.TID 0000.0001)     ;
(PID.TID 0000.0001) hMixSmooth=  /* Smoothing parameter for mixed-layer diagnostic */
(PID.TID 0000.0001)                 0.000000000000000E+00
(PID.TID 0000.0001)     ;
(PID.TID 0000.0001) eosType =  /* Type of Equation of State */
(PID.TID 0000.0001)               'JMD95Z'
(PID.TID 0000.0001)     ;
(PID.TID 0000.0001) celsius2K = /* 0 degree Celsius converted to Kelvin ( K ) */
(PID.TID 0000.0001)                 2.731500000000000E+02
(PID.TID 0000.0001)     ;
(PID.TID 0000.0001) rhoConst  = /* Reference density (Boussinesq)  ( kg/m^3 ) */
(PID.TID 0000.0001)                 1.027500000000000E+03
(PID.TID 0000.0001)     ;
(PID.TID 0000.0001) rhoFacC = /* normalized Reference density @ cell-Center (-) */
(PID.TID 0000.0001)    24 @  1.000000000000000E+00              /* K =  1: 24 */
(PID.TID 0000.0001)     ;
(PID.TID 0000.0001) rhoFacF = /* normalized Reference density @ W-Interface (-) */
(PID.TID 0000.0001)    25 @  1.000000000000000E+00              /* K =  1: 25 */
(PID.TID 0000.0001)     ;
(PID.TID 0000.0001) rhoConstFresh = /* Fresh-water reference density ( kg/m^3 ) */
(PID.TID 0000.0001)                 9.998000000000000E+02
(PID.TID 0000.0001)     ;
(PID.TID 0000.0001) gravity =   /* Gravitational acceleration ( m/s^2 ) */
(PID.TID 0000.0001)                 9.810000000000000E+00
(PID.TID 0000.0001)     ;
(PID.TID 0000.0001) gBaro =   /* Barotropic gravity ( m/s^2 ) */
(PID.TID 0000.0001)                 9.810000000000000E+00
(PID.TID 0000.0001)     ;
(PID.TID 0000.0001) rotationPeriod =   /* Rotation Period ( s ) */
(PID.TID 0000.0001)                 8.616400000000000E+04
(PID.TID 0000.0001)     ;
(PID.TID 0000.0001) omega =   /* Angular velocity ( rad/s ) */
(PID.TID 0000.0001)                 7.292123516990375E-05
(PID.TID 0000.0001)     ;
(PID.TID 0000.0001) f0 =   /* Reference coriolis parameter ( 1/s ) */
(PID.TID 0000.0001)                 1.000000000000000E-04
(PID.TID 0000.0001)     ;
(PID.TID 0000.0001) beta =   /* Beta ( 1/(m.s) ) */
(PID.TID 0000.0001)                 9.999999999999999E-12
(PID.TID 0000.0001)     ;
(PID.TID 0000.0001) fPrime =   /* Second coriolis parameter ( 1/s ) */
(PID.TID 0000.0001)                 0.000000000000000E+00
(PID.TID 0000.0001)     ;
(PID.TID 0000.0001) rigidLid =   /* Rigid lid on/off flag */
(PID.TID 0000.0001)                   F
(PID.TID 0000.0001)     ;
(PID.TID 0000.0001) implicitFreeSurface =   /* Implicit free surface on/off flag */
(PID.TID 0000.0001)                   T
(PID.TID 0000.0001)     ;
(PID.TID 0000.0001) freeSurfFac =   /* Implicit free surface factor */
(PID.TID 0000.0001)                 1.000000000000000E+00
(PID.TID 0000.0001)     ;
(PID.TID 0000.0001) implicSurfPress =  /* Surface Pressure implicit factor (0-1)*/
(PID.TID 0000.0001)                 1.000000000000000E+00
(PID.TID 0000.0001)     ;
(PID.TID 0000.0001) implicDiv2Dflow =  /* Barot. Flow Div. implicit factor (0-1)*/
(PID.TID 0000.0001)                 1.000000000000000E+00
(PID.TID 0000.0001)     ;
(PID.TID 0000.0001) uniformLin_PhiSurf = /* use uniform Bo_surf on/off flag*/
(PID.TID 0000.0001)                   T
(PID.TID 0000.0001)     ;
(PID.TID 0000.0001) uniformFreeSurfLev = /* free-surface level-index is uniform */
(PID.TID 0000.0001)                   T
(PID.TID 0000.0001)     ;
(PID.TID 0000.0001) hFacMin =   /* minimum partial cell factor (hFac) */
(PID.TID 0000.0001)                 3.000000000000000E-01
(PID.TID 0000.0001)     ;
(PID.TID 0000.0001) hFacMinDr = /* minimum partial cell thickness ( m) */
(PID.TID 0000.0001)                 3.000000000000000E-01
(PID.TID 0000.0001)     ;
(PID.TID 0000.0001) exactConserv =  /* Exact Volume Conservation on/off flag*/
(PID.TID 0000.0001)                   T
(PID.TID 0000.0001)     ;
(PID.TID 0000.0001) linFSConserveTr = /* Tracer correction for Lin Free Surface on/off flag*/
(PID.TID 0000.0001)                   F
(PID.TID 0000.0001)     ;
(PID.TID 0000.0001) nonlinFreeSurf = /* Non-linear Free Surf. options (-1,0,1,2,3)*/
(PID.TID 0000.0001)                       0
(PID.TID 0000.0001)      -1,0= Off ; 1,2,3= On, 2=+rescale gU,gV, 3=+update cg2d solv.
(PID.TID 0000.0001)     ;
(PID.TID 0000.0001) hFacInf =   /* lower threshold for hFac (nonlinFreeSurf only)*/
(PID.TID 0000.0001)                 1.000000000000000E-01
(PID.TID 0000.0001)     ;
(PID.TID 0000.0001) hFacSup =   /* upper threshold for hFac (nonlinFreeSurf only)*/
(PID.TID 0000.0001)                 5.000000000000000E+00
(PID.TID 0000.0001)     ;
(PID.TID 0000.0001) select_rStar = /* r* Vertical coord. options (=0 r coord.; >0 uses r*)*/
(PID.TID 0000.0001)                       0
(PID.TID 0000.0001)     ;
(PID.TID 0000.0001) useRealFreshWaterFlux = /* Real Fresh Water Flux on/off flag*/
(PID.TID 0000.0001)                   F
(PID.TID 0000.0001)     ;
(PID.TID 0000.0001) temp_EvPrRn = /* Temp. of Evap/Prec/R (UNSET=use local T)(oC)*/
(PID.TID 0000.0001)                 1.234567000000000E+05
(PID.TID 0000.0001)     ;
(PID.TID 0000.0001) salt_EvPrRn = /* Salin. of Evap/Prec/R (UNSET=use local S)(psu)*/
(PID.TID 0000.0001)                 0.000000000000000E+00
(PID.TID 0000.0001)     ;
(PID.TID 0000.0001) selectAddFluid = /* option for mass source/sink of fluid (=0: off) */
(PID.TID 0000.0001)                       0
(PID.TID 0000.0001)     ;
(PID.TID 0000.0001) temp_addMass = /* Temp. of addMass array (UNSET=use local T)(oC)*/
(PID.TID 0000.0001)                 1.234567000000000E+05
(PID.TID 0000.0001)     ;
(PID.TID 0000.0001) salt_addMass = /* Salin. of addMass array (UNSET=use local S)(psu)*/
(PID.TID 0000.0001)                 0.000000000000000E+00
(PID.TID 0000.0001)     ;
(PID.TID 0000.0001) convertFW2Salt = /* convert F.W. Flux to Salt Flux (-1=use local S)(psu)*/
(PID.TID 0000.0001)                -1.000000000000000E+00
(PID.TID 0000.0001)     ;
(PID.TID 0000.0001) use3Dsolver = /* use 3-D pressure solver on/off flag */
(PID.TID 0000.0001)                   F
(PID.TID 0000.0001)     ;
(PID.TID 0000.0001) nonHydrostatic =  /* Non-Hydrostatic on/off flag */
(PID.TID 0000.0001)                   F
(PID.TID 0000.0001)     ;
(PID.TID 0000.0001) nh_Am2 = /* Non-Hydrostatic terms scaling factor */
(PID.TID 0000.0001)                 1.000000000000000E+00
(PID.TID 0000.0001)     ;
(PID.TID 0000.0001) implicitNHPress = /* Non-Hyd Pressure implicit factor (0-1)*/
(PID.TID 0000.0001)                 1.000000000000000E+00
(PID.TID 0000.0001)     ;
(PID.TID 0000.0001) selectNHfreeSurf = /* Non-Hyd (free-)Surface option */
(PID.TID 0000.0001)                       0
(PID.TID 0000.0001)     ;
(PID.TID 0000.0001) quasiHydrostatic = /* Quasi-Hydrostatic on/off flag */
(PID.TID 0000.0001)                   F
(PID.TID 0000.0001)     ;
(PID.TID 0000.0001) calc_wVelocity = /* vertical velocity calculation on/off flag */
(PID.TID 0000.0001)                   T
(PID.TID 0000.0001)     ;
(PID.TID 0000.0001) momStepping =  /* Momentum equation on/off flag */
(PID.TID 0000.0001)                   T
(PID.TID 0000.0001)     ;
(PID.TID 0000.0001) vectorInvariantMomentum= /* Vector-Invariant Momentum on/off */
(PID.TID 0000.0001)                   T
(PID.TID 0000.0001)     ;
(PID.TID 0000.0001) momAdvection =  /* Momentum advection on/off flag */
(PID.TID 0000.0001)                   T
(PID.TID 0000.0001)     ;
(PID.TID 0000.0001) momViscosity =  /* Momentum viscosity on/off flag */
(PID.TID 0000.0001)                   T
(PID.TID 0000.0001)     ;
(PID.TID 0000.0001) momImplVertAdv= /* Momentum implicit vert. advection on/off*/
(PID.TID 0000.0001)                   F
(PID.TID 0000.0001)     ;
(PID.TID 0000.0001) implicitViscosity = /* Implicit viscosity on/off flag */
(PID.TID 0000.0001)                   T
(PID.TID 0000.0001)     ;
(PID.TID 0000.0001) metricTerms =  /* metric-Terms on/off flag */
(PID.TID 0000.0001)                   F
(PID.TID 0000.0001)     ;
(PID.TID 0000.0001) useNHMTerms = /* Non-Hydrostatic Metric-Terms on/off */
(PID.TID 0000.0001)                   F
(PID.TID 0000.0001)     ;
(PID.TID 0000.0001) selectCoriMap = /* Coriolis Map options (0,1,2,3)*/
(PID.TID 0000.0001)                       2
(PID.TID 0000.0001)     0= f-Plane ; 1= Beta-Plane ; 2= Spherical ; 3= read from file
(PID.TID 0000.0001)     ;
(PID.TID 0000.0001) use3dCoriolis = /* 3-D Coriolis on/off flag */
(PID.TID 0000.0001)                   F
(PID.TID 0000.0001)     ;
(PID.TID 0000.0001) useCoriolis =  /* Coriolis on/off flag */
(PID.TID 0000.0001)                   T
(PID.TID 0000.0001)     ;
(PID.TID 0000.0001) useCDscheme =  /* CD scheme on/off flag */
(PID.TID 0000.0001)                   F
(PID.TID 0000.0001)     ;
(PID.TID 0000.0001) useEnergyConservingCoriolis= /* Flx-Form Coriolis scheme flag */
(PID.TID 0000.0001)                   F
(PID.TID 0000.0001)     ;
(PID.TID 0000.0001) useJamartWetPoints= /* Coriolis WetPoints method flag */
(PID.TID 0000.0001)                   F
(PID.TID 0000.0001)     ;
(PID.TID 0000.0001) useJamartMomAdv= /* V.I Non-linear terms Jamart flag */
(PID.TID 0000.0001)                   F
(PID.TID 0000.0001)     ;
(PID.TID 0000.0001) useAbsVorticity= /* V.I Works with f+zeta in Coriolis */
(PID.TID 0000.0001)                   F
(PID.TID 0000.0001)     ;
(PID.TID 0000.0001) selectVortScheme= /* V.I Scheme selector for Vorticity-Term */
(PID.TID 0000.0001)                       0
(PID.TID 0000.0001)    = 0 : enstrophy (Shallow-Water Eq.) conserving scheme by Sadourny, JAS 75
(PID.TID 0000.0001)    = 1 : same as 0 with modified hFac
(PID.TID 0000.0001)    = 2 : energy conserving scheme (used by Sadourny in JAS 75 paper)
(PID.TID 0000.0001)    = 3 : energy (general) and enstrophy (2D, nonDiv.) conserving scheme
(PID.TID 0000.0001)          from Sadourny (Burridge & Haseler, ECMWF Rep.4, 1977)
(PID.TID 0000.0001)     ;
(PID.TID 0000.0001) upwindVorticity= /* V.I Upwind bias vorticity flag */
(PID.TID 0000.0001)                   F
(PID.TID 0000.0001)     ;
(PID.TID 0000.0001) highOrderVorticity= /* V.I High order vort. advect. flag */
(PID.TID 0000.0001)                   T
(PID.TID 0000.0001)     ;
(PID.TID 0000.0001) upwindShear= /* V.I Upwind vertical Shear advection flag */
(PID.TID 0000.0001)                   F
(PID.TID 0000.0001)     ;
(PID.TID 0000.0001) selectKEscheme= /* V.I Kinetic Energy scheme selector */
(PID.TID 0000.0001)                       0
(PID.TID 0000.0001)     ;
(PID.TID 0000.0001) momForcing =  /* Momentum forcing on/off flag */
(PID.TID 0000.0001)                   T
(PID.TID 0000.0001)     ;
(PID.TID 0000.0001) momPressureForcing =  /* Momentum pressure term on/off flag */
(PID.TID 0000.0001)                   T
(PID.TID 0000.0001)     ;
(PID.TID 0000.0001) implicitIntGravWave= /* Implicit Internal Gravity Wave flag */
(PID.TID 0000.0001)                   F
(PID.TID 0000.0001)     ;
(PID.TID 0000.0001) staggerTimeStep =    /* Stagger time stepping on/off flag */
(PID.TID 0000.0001)                   T
(PID.TID 0000.0001)     ;
(PID.TID 0000.0001) doResetHFactors = /* reset thickness factors @ each time-step */
(PID.TID 0000.0001)                   F
(PID.TID 0000.0001)     ;
(PID.TID 0000.0001) multiDimAdvection =  /* enable/disable Multi-Dim Advection */
(PID.TID 0000.0001)                   T
(PID.TID 0000.0001)     ;
(PID.TID 0000.0001) useMultiDimAdvec =   /* Multi-Dim Advection is/is-not used */
(PID.TID 0000.0001)                   T
(PID.TID 0000.0001)     ;
(PID.TID 0000.0001) implicitDiffusion = /* Implicit Diffusion on/off flag */
(PID.TID 0000.0001)                   T
(PID.TID 0000.0001)     ;
(PID.TID 0000.0001) tempStepping =  /* Temperature equation on/off flag */
(PID.TID 0000.0001)                   T
(PID.TID 0000.0001)     ;
(PID.TID 0000.0001) tempAdvection = /* Temperature advection on/off flag */
(PID.TID 0000.0001)                   T
(PID.TID 0000.0001)     ;
(PID.TID 0000.0001) tempImplVertAdv = /* Temp. implicit vert. advection on/off */
(PID.TID 0000.0001)                   F
(PID.TID 0000.0001)     ;
(PID.TID 0000.0001) tempForcing  =  /* Temperature forcing on/off flag */
(PID.TID 0000.0001)                   T
(PID.TID 0000.0001)     ;
(PID.TID 0000.0001) doThetaClimRelax = /* apply SST relaxation on/off flag */
(PID.TID 0000.0001)                   F
(PID.TID 0000.0001)     ;
(PID.TID 0000.0001) tempIsActiveTr = /* Temp. is a dynamically Active Tracer */
(PID.TID 0000.0001)                   T
(PID.TID 0000.0001)     ;
(PID.TID 0000.0001) saltStepping =  /* Salinity equation on/off flag */
(PID.TID 0000.0001)                   T
(PID.TID 0000.0001)     ;
(PID.TID 0000.0001) saltAdvection = /* Salinity advection on/off flag */
(PID.TID 0000.0001)                   T
(PID.TID 0000.0001)     ;
(PID.TID 0000.0001) saltImplVertAdv = /* Sali. implicit vert. advection on/off */
(PID.TID 0000.0001)                   F
(PID.TID 0000.0001)     ;
(PID.TID 0000.0001) saltForcing  =  /* Salinity forcing on/off flag */
(PID.TID 0000.0001)                   T
(PID.TID 0000.0001)     ;
(PID.TID 0000.0001) doSaltClimRelax = /* apply SSS relaxation on/off flag */
(PID.TID 0000.0001)                   T
(PID.TID 0000.0001)     ;
(PID.TID 0000.0001) saltIsActiveTr = /* Salt  is a dynamically Active Tracer */
(PID.TID 0000.0001)                   T
(PID.TID 0000.0001)     ;
(PID.TID 0000.0001)  readBinaryPrec = /* Precision used for reading binary files */
(PID.TID 0000.0001)                      32
(PID.TID 0000.0001)     ;
(PID.TID 0000.0001) writeBinaryPrec = /* Precision used for writing binary files */
(PID.TID 0000.0001)                      64
(PID.TID 0000.0001)     ;
(PID.TID 0000.0001)  globalFiles = /* write "global" (=not per tile) files */
(PID.TID 0000.0001)                   T
(PID.TID 0000.0001)     ;
(PID.TID 0000.0001)  useSingleCpuIO = /* only master MPI process does I/O */
(PID.TID 0000.0001)                   T
(PID.TID 0000.0001)     ;
(PID.TID 0000.0001) /* debLev[*]  : level of debug & auxiliary message printing */
(PID.TID 0000.0001) debLevZero =  0 ; /* level of disabled aux. msg printing */
(PID.TID 0000.0001)    debLevA =  1 ; /* level of minimum  aux. msg printing */
(PID.TID 0000.0001)    debLevB =  2 ; /* level of low aux. print (report read-file opening)*/
(PID.TID 0000.0001)    debLevC =  3 ; /* level of moderate debug prt (most pkgs debug msg) */
(PID.TID 0000.0001)    debLevD =  4 ; /* level of enhanced debug prt (add DEBUG_STATS prt) */
(PID.TID 0000.0001)    debLevE =  5 ; /* level of extensive debug printing */
(PID.TID 0000.0001) debugLevel =  /* select debug printing level */
(PID.TID 0000.0001)                       2
(PID.TID 0000.0001)     ;
(PID.TID 0000.0001) //
(PID.TID 0000.0001) // Elliptic solver(s) paramters ( PARM02 in namelist )
(PID.TID 0000.0001) //
(PID.TID 0000.0001) cg2dMaxIters =   /* Upper limit on 2d con. grad iterations  */
(PID.TID 0000.0001)                     100
(PID.TID 0000.0001)     ;
(PID.TID 0000.0001) cg2dChkResFreq =   /* 2d con. grad convergence test frequency */
(PID.TID 0000.0001)                       1
(PID.TID 0000.0001)     ;
(PID.TID 0000.0001) cg2dUseMinResSol= /* use cg2d last-iter(=0) / min-resid.(=1) solution */
(PID.TID 0000.0001)                       0
(PID.TID 0000.0001)     ;
(PID.TID 0000.0001) cg2dTargetResidual =   /* 2d con. grad target residual  */
(PID.TID 0000.0001)                 1.000000000000000E-05
(PID.TID 0000.0001)     ;
(PID.TID 0000.0001) cg2dTargetResWunit =   /* CG2d target residual [W units] */
(PID.TID 0000.0001)                -1.000000000000000E+00
(PID.TID 0000.0001)     ;
(PID.TID 0000.0001) cg2dPreCondFreq =   /* Freq. for updating cg2d preconditioner */
(PID.TID 0000.0001)                       1
(PID.TID 0000.0001)     ;
(PID.TID 0000.0001) useSRCGSolver =  /* use single reduction CG solver(s) */
(PID.TID 0000.0001)                   F
(PID.TID 0000.0001)     ;
(PID.TID 0000.0001) printResidualFreq = /* Freq. for printing CG residual */
(PID.TID 0000.0001)                       0
(PID.TID 0000.0001)     ;
(PID.TID 0000.0001) //
(PID.TID 0000.0001) // Time stepping paramters ( PARM03 in namelist )
(PID.TID 0000.0001) //
(PID.TID 0000.0001) deltaTMom =   /* Momentum equation timestep ( s ) */
(PID.TID 0000.0001)                 1.200000000000000E+03
(PID.TID 0000.0001)     ;
(PID.TID 0000.0001) deltaTFreeSurf = /* FreeSurface equation timestep ( s ) */
(PID.TID 0000.0001)                 1.200000000000000E+03
(PID.TID 0000.0001)     ;
(PID.TID 0000.0001) dTtracerLev =  /* Tracer equation timestep ( s ) */
(PID.TID 0000.0001)    24 @  1.200000000000000E+03              /* K =  1: 24 */
(PID.TID 0000.0001)     ;
(PID.TID 0000.0001) deltaTClock  =   /* Model clock timestep ( s ) */
(PID.TID 0000.0001)                 1.200000000000000E+03
(PID.TID 0000.0001)     ;
(PID.TID 0000.0001) cAdjFreq =   /* Convective adjustment interval ( s ) */
(PID.TID 0000.0001)                 0.000000000000000E+00
(PID.TID 0000.0001)     ;
(PID.TID 0000.0001) momForcingOutAB = /* =1: take Momentum Forcing out of Adams-Bash. stepping */
(PID.TID 0000.0001)                       1
(PID.TID 0000.0001)     ;
(PID.TID 0000.0001) tracForcingOutAB = /* =1: take T,S,pTr Forcing out of Adams-Bash. stepping */
(PID.TID 0000.0001)                       1
(PID.TID 0000.0001)     ;
(PID.TID 0000.0001) momDissip_In_AB = /* put Dissipation Tendency in Adams-Bash. stepping */
(PID.TID 0000.0001)                   T
(PID.TID 0000.0001)     ;
(PID.TID 0000.0001) doAB_onGtGs = /* apply AB on Tendencies (rather than on T,S)*/
(PID.TID 0000.0001)                   T
(PID.TID 0000.0001)     ;
(PID.TID 0000.0001) abEps =   /* Adams-Bashforth-2 stabilizing weight */
(PID.TID 0000.0001)                 1.000000000000000E-01
(PID.TID 0000.0001)     ;
(PID.TID 0000.0001) pickupStrictlyMatch= /* stop if pickup do not strictly match */
(PID.TID 0000.0001)                   F
(PID.TID 0000.0001)     ;
(PID.TID 0000.0001) nIter0   =   /* Run starting timestep number */
(PID.TID 0000.0001)                  188388
(PID.TID 0000.0001)     ;
(PID.TID 0000.0001) nTimeSteps = /* Number of timesteps */
(PID.TID 0000.0001)                       4
(PID.TID 0000.0001)     ;
(PID.TID 0000.0001) nEndIter =   /* Run ending timestep number */
(PID.TID 0000.0001)                  188392
(PID.TID 0000.0001)     ;
(PID.TID 0000.0001) baseTime =   /* Model base time ( s ) */
(PID.TID 0000.0001)                 0.000000000000000E+00
(PID.TID 0000.0001)     ;
(PID.TID 0000.0001) startTime =  /* Run start time ( s ) */
(PID.TID 0000.0001)                 2.260656000000000E+08
(PID.TID 0000.0001)     ;
(PID.TID 0000.0001) endTime  =   /* Integration ending time ( s ) */
(PID.TID 0000.0001)                 2.260704000000000E+08
(PID.TID 0000.0001)     ;
(PID.TID 0000.0001) pChkPtFreq = /* Permanent restart/pickup file interval ( s ) */
(PID.TID 0000.0001)                 2.678400000000000E+06
(PID.TID 0000.0001)     ;
(PID.TID 0000.0001) chkPtFreq  = /* Rolling restart/pickup file interval ( s ) */
(PID.TID 0000.0001)                 2.592000000000000E+06
(PID.TID 0000.0001)     ;
(PID.TID 0000.0001) pickup_write_mdsio =   /* Model IO flag. */
(PID.TID 0000.0001)                   T
(PID.TID 0000.0001)     ;
(PID.TID 0000.0001) pickup_read_mdsio =   /* Model IO flag. */
(PID.TID 0000.0001)                   T
(PID.TID 0000.0001)     ;
(PID.TID 0000.0001) pickup_write_immed =   /* Model IO flag. */
(PID.TID 0000.0001)                   F
(PID.TID 0000.0001)     ;
(PID.TID 0000.0001) writePickupAtEnd =   /* Model IO flag. */
(PID.TID 0000.0001)                   T
(PID.TID 0000.0001)     ;
(PID.TID 0000.0001) dumpFreq =   /* Model state write out interval ( s ). */
(PID.TID 0000.0001)                 0.000000000000000E+00
(PID.TID 0000.0001)     ;
(PID.TID 0000.0001) dumpInitAndLast= /* write out Initial & Last iter. model state */
(PID.TID 0000.0001)                   F
(PID.TID 0000.0001)     ;
(PID.TID 0000.0001) snapshot_mdsio =   /* Model IO flag. */
(PID.TID 0000.0001)                   T
(PID.TID 0000.0001)     ;
(PID.TID 0000.0001) monitorFreq =   /* Monitor output interval ( s ). */
(PID.TID 0000.0001)                 1.200000000000000E+03
(PID.TID 0000.0001)     ;
(PID.TID 0000.0001) monitorSelect = /* select group of variables to monitor */
(PID.TID 0000.0001)                       3
(PID.TID 0000.0001)     ;
(PID.TID 0000.0001) monitor_stdio =   /* Model IO flag. */
(PID.TID 0000.0001)                   T
(PID.TID 0000.0001)     ;
(PID.TID 0000.0001) externForcingPeriod =   /* forcing period (s) */
(PID.TID 0000.0001)                 0.000000000000000E+00
(PID.TID 0000.0001)     ;
(PID.TID 0000.0001) externForcingCycle =   /* period of the cyle (s). */
(PID.TID 0000.0001)                 0.000000000000000E+00
(PID.TID 0000.0001)     ;
(PID.TID 0000.0001) tauThetaClimRelax =   /* relaxation time scale (s) */
(PID.TID 0000.0001)                 0.000000000000000E+00
(PID.TID 0000.0001)     ;
(PID.TID 0000.0001) tauSaltClimRelax =   /* relaxation time scale (s) */
(PID.TID 0000.0001)                 8.722203000000000E+06
(PID.TID 0000.0001)     ;
(PID.TID 0000.0001) latBandClimRelax =   /* max. Lat. where relaxation */
(PID.TID 0000.0001)                 1.800000000000000E+02
(PID.TID 0000.0001)     ;
(PID.TID 0000.0001) //
(PID.TID 0000.0001) // Gridding paramters ( PARM04 in namelist )
(PID.TID 0000.0001) //
(PID.TID 0000.0001) usingCartesianGrid = /* Cartesian coordinates flag ( True/False ) */
(PID.TID 0000.0001)                   F
(PID.TID 0000.0001)     ;
(PID.TID 0000.0001) usingCylindricalGrid = /* Cylindrical coordinates flag ( True/False ) */
(PID.TID 0000.0001)                   F
(PID.TID 0000.0001)     ;
(PID.TID 0000.0001) usingSphericalPolarGrid = /* Spherical coordinates flag ( True/False ) */
(PID.TID 0000.0001)                   F
(PID.TID 0000.0001)     ;
(PID.TID 0000.0001) usingCurvilinearGrid = /* Curvilinear coordinates flag ( True/False ) */
(PID.TID 0000.0001)                   T
(PID.TID 0000.0001)     ;
(PID.TID 0000.0001) selectSigmaCoord = /* Hybrid-Sigma Vert. Coordinate option */
(PID.TID 0000.0001)                       0
(PID.TID 0000.0001)     ;
(PID.TID 0000.0001) Ro_SeaLevel = /* r(1) ( units of r ==  m ) */
(PID.TID 0000.0001)                 0.000000000000000E+00
(PID.TID 0000.0001)     ;
(PID.TID 0000.0001) rSigmaBnd = /* r/sigma transition ( units of r ==  m ) */
(PID.TID 0000.0001)                 1.234567000000000E+05
(PID.TID 0000.0001)     ;
(PID.TID 0000.0001) rkSign =   /* index orientation relative to vertical coordinate */
(PID.TID 0000.0001)                -1.000000000000000E+00
(PID.TID 0000.0001)     ;
(PID.TID 0000.0001) gravitySign = /* gravity orientation relative to vertical coordinate */
(PID.TID 0000.0001)                -1.000000000000000E+00
(PID.TID 0000.0001)     ;
(PID.TID 0000.0001) mass2rUnit = /* convert mass per unit area [kg/m2] to r-units [m] */
(PID.TID 0000.0001)                 9.732360097323601E-04
(PID.TID 0000.0001)     ;
(PID.TID 0000.0001) rUnit2mass = /* convert r-units [m] to mass per unit area [kg/m2] */
(PID.TID 0000.0001)                 1.027500000000000E+03
(PID.TID 0000.0001)     ;
(PID.TID 0000.0001) drC =   /* C spacing ( units of r ) */
(PID.TID 0000.0001)                 5.000000000000000E+00,      /* K =  1 */
(PID.TID 0000.0001)     6 @  1.000000000000000E+01,             /* K =  2:  7 */
(PID.TID 0000.0001)                 1.000500000000000E+01,      /* K =  8 */
(PID.TID 0000.0001)                 1.002000000000000E+01,      /* K =  9 */
(PID.TID 0000.0001)                 1.007000000000000E+01,      /* K = 10 */
(PID.TID 0000.0001)                 1.021500000000000E+01,      /* K = 11 */
(PID.TID 0000.0001)                 1.056000000000000E+01,      /* K = 12 */
(PID.TID 0000.0001)                 1.128000000000000E+01,      /* K = 13 */
(PID.TID 0000.0001)                 1.259000000000000E+01,      /* K = 14 */
(PID.TID 0000.0001)                 1.473000000000000E+01,      /* K = 15 */
(PID.TID 0000.0001)                 1.793000000000000E+01,      /* K = 16 */
(PID.TID 0000.0001)                 2.233500000000000E+01,      /* K = 17 */
(PID.TID 0000.0001)                 2.797500000000000E+01,      /* K = 18 */
(PID.TID 0000.0001)                 3.476000000000001E+01,      /* K = 19 */
(PID.TID 0000.0001)                 4.246000000000000E+01,      /* K = 20 */
(PID.TID 0000.0001)                 5.075000000000000E+01,      /* K = 21 */
(PID.TID 0000.0001)                 5.925000000000000E+01,      /* K = 22 */
(PID.TID 0000.0001)                 6.753999999999999E+01,      /* K = 23 */
(PID.TID 0000.0001)                 7.524000000000001E+01       /* K = 24 */
(PID.TID 0000.0001)     ;
(PID.TID 0000.0001) drF =   /* W spacing ( units of r ) */
(PID.TID 0000.0001)     7 @  1.000000000000000E+01,             /* K =  1:  7 */
(PID.TID 0000.0001)                 1.001000000000000E+01,      /* K =  8 */
(PID.TID 0000.0001)                 1.003000000000000E+01,      /* K =  9 */
(PID.TID 0000.0001)                 1.011000000000000E+01,      /* K = 10 */
(PID.TID 0000.0001)                 1.032000000000000E+01,      /* K = 11 */
(PID.TID 0000.0001)                 1.080000000000000E+01,      /* K = 12 */
(PID.TID 0000.0001)                 1.176000000000000E+01,      /* K = 13 */
(PID.TID 0000.0001)                 1.342000000000000E+01,      /* K = 14 */
(PID.TID 0000.0001)                 1.604000000000000E+01,      /* K = 15 */
(PID.TID 0000.0001)                 1.982000000000000E+01,      /* K = 16 */
(PID.TID 0000.0001)                 2.485000000000000E+01,      /* K = 17 */
(PID.TID 0000.0001)                 3.110000000000000E+01,      /* K = 18 */
(PID.TID 0000.0001)                 3.842000000000000E+01,      /* K = 19 */
(PID.TID 0000.0001)                 4.650000000000000E+01,      /* K = 20 */
(PID.TID 0000.0001)                 5.500000000000000E+01,      /* K = 21 */
(PID.TID 0000.0001)                 6.350000000000000E+01,      /* K = 22 */
(PID.TID 0000.0001)                 7.158000000000000E+01,      /* K = 23 */
(PID.TID 0000.0001)                 7.890000000000001E+01       /* K = 24 */
(PID.TID 0000.0001)     ;
(PID.TID 0000.0001) radius_fromHorizGrid = /* sphere Radius of input horiz. grid */
(PID.TID 0000.0001)                 6.370000000000000E+06
(PID.TID 0000.0001)     ;
(PID.TID 0000.0001) rSphere =  /* Radius ( ignored - cartesian, m - spherical ) */
(PID.TID 0000.0001)                 6.370000000000000E+06
(PID.TID 0000.0001)     ;
(PID.TID 0000.0001) deepAtmosphere = /* Deep/Shallow Atmosphere flag (True/False) */
(PID.TID 0000.0001)                   F
(PID.TID 0000.0001)     ;
(PID.TID 0000.0001) xC =  /* xC(:,1,:,1) : P-point X coord ( deg. or m if cartesian) */
(PID.TID 0000.0001)                 2.302801132202148E+01,      /* I =  1 */
(PID.TID 0000.0001)                 2.313455772399902E+01,      /* I =  2 */
(PID.TID 0000.0001)                 2.324206161499023E+01,      /* I =  3 */
(PID.TID 0000.0001)      . . .
(PID.TID 0000.0001)                 2.485174751281738E+01,      /* I = 17 */
(PID.TID 0000.0001)                 2.497451591491699E+01,      /* I = 18 */
(PID.TID 0000.0001)                 2.509836769104004E+01,      /* I = 19 */
(PID.TID 0000.0001)                 2.522331237792969E+01,      /* I = 20 */
(PID.TID 0000.0001)                 2.534935951232910E+01,      /* I = 21 */
(PID.TID 0000.0001)                 2.547651863098145E+01,      /* I = 22 */
(PID.TID 0000.0001)      . . .
(PID.TID 0000.0001)                 2.737910652160645E+01,      /* I = 36 */
(PID.TID 0000.0001)                 2.752417564392090E+01,      /* I = 37 */
(PID.TID 0000.0001)                 2.767053031921387E+01,      /* I = 38 */
(PID.TID 0000.0001)                 2.781818008422852E+01,      /* I = 39 */
(PID.TID 0000.0001)                 2.796714019775391E+01,      /* I = 40 */
(PID.TID 0000.0001)                 2.811742019653320E+01,      /* I = 41 */
(PID.TID 0000.0001)      . . .
(PID.TID 0000.0001)                 3.036766815185547E+01,      /* I = 55 */
(PID.TID 0000.0001)                 3.053942489624023E+01,      /* I = 56 */
(PID.TID 0000.0001)                 3.071273422241211E+01,      /* I = 57 */
(PID.TID 0000.0001)                 3.088761138916016E+01,      /* I = 58 */
(PID.TID 0000.0001)                 3.106407165527344E+01,      /* I = 59 */
(PID.TID 0000.0001)                 3.124213218688965E+01,      /* I = 60 */
(PID.TID 0000.0001)      . . .
(PID.TID 0000.0001)                 3.391292953491211E+01,      /* I = 74 */
(PID.TID 0000.0001)                 3.411715316772461E+01,      /* I = 75 */
(PID.TID 0000.0001)                 3.432328033447266E+01       /* I = 76 */
(PID.TID 0000.0001)     ;
(PID.TID 0000.0001) yC =  /* yC(1,:,1,:) : P-point Y coord ( deg. or m if cartesian) */
(PID.TID 0000.0001)                 5.149615097045898E+01,      /* J =  1 */
(PID.TID 0000.0001)                 5.154657363891602E+01,      /* J =  2 */
(PID.TID 0000.0001)                 5.159649658203125E+01,      /* J =  3 */
(PID.TID 0000.0001)      . . .
(PID.TID 0000.0001)                 5.219993209838867E+01,      /* J = 16 */
(PID.TID 0000.0001)                 5.224282073974609E+01,      /* J = 17 */
(PID.TID 0000.0001)                 5.228519821166992E+01,      /* J = 18 */
(PID.TID 0000.0001)                 5.232706832885742E+01,      /* J = 19 */
(PID.TID 0000.0001)                 5.236842727661133E+01,      /* J = 20 */
(PID.TID 0000.0001)                 5.240927505493164E+01,      /* J = 21 */
(PID.TID 0000.0001)      . . .
(PID.TID 0000.0001)                 5.289355850219727E+01,      /* J = 34 */
(PID.TID 0000.0001)                 5.292719268798828E+01,      /* J = 35 */
(PID.TID 0000.0001)                 5.296030426025391E+01,      /* J = 36 */
(PID.TID 0000.0001)                 5.299289321899414E+01,      /* J = 37 */
(PID.TID 0000.0001)                 5.302496337890625E+01,      /* J = 38 */
(PID.TID 0000.0001)                 5.305651092529297E+01,      /* J = 39 */
(PID.TID 0000.0001)      . . .
(PID.TID 0000.0001)                 5.341885757446289E+01,      /* J = 52 */
(PID.TID 0000.0001)                 5.344303512573242E+01,      /* J = 53 */
(PID.TID 0000.0001)                 5.346668624877930E+01,      /* J = 54 */
(PID.TID 0000.0001)                 5.348980331420898E+01,      /* J = 55 */
(PID.TID 0000.0001)                 5.351239013671875E+01,      /* J = 56 */
(PID.TID 0000.0001)                 5.353444671630859E+01,      /* J = 57 */
(PID.TID 0000.0001)      . . .
(PID.TID 0000.0001)                 5.377260971069336E+01,      /* J = 70 */
(PID.TID 0000.0001)                 5.378718185424805E+01,      /* J = 71 */
(PID.TID 0000.0001)                 5.380121612548828E+01       /* J = 72 */
(PID.TID 0000.0001)     ;
(PID.TID 0000.0001) rcoord = /* P-point R coordinate (  units of r ) */
(PID.TID 0000.0001)                -5.000000000000000E+00,      /* K =  1 */
(PID.TID 0000.0001)                -1.500000000000000E+01,      /* K =  2 */
(PID.TID 0000.0001)                -2.500000000000000E+01,      /* K =  3 */
(PID.TID 0000.0001)                -3.500000000000000E+01,      /* K =  4 */
(PID.TID 0000.0001)                -4.500000000000000E+01,      /* K =  5 */
(PID.TID 0000.0001)                -5.500000000000000E+01,      /* K =  6 */
(PID.TID 0000.0001)                -6.500000000000000E+01,      /* K =  7 */
(PID.TID 0000.0001)                -7.500500000000000E+01,      /* K =  8 */
(PID.TID 0000.0001)                -8.502499999999999E+01,      /* K =  9 */
(PID.TID 0000.0001)                -9.509500000000000E+01,      /* K = 10 */
(PID.TID 0000.0001)                -1.053100000000000E+02,      /* K = 11 */
(PID.TID 0000.0001)                -1.158700000000000E+02,      /* K = 12 */
(PID.TID 0000.0001)                -1.271500000000000E+02,      /* K = 13 */
(PID.TID 0000.0001)                -1.397400000000000E+02,      /* K = 14 */
(PID.TID 0000.0001)                -1.544700000000000E+02,      /* K = 15 */
(PID.TID 0000.0001)                -1.724000000000000E+02,      /* K = 16 */
(PID.TID 0000.0001)                -1.947350000000000E+02,      /* K = 17 */
(PID.TID 0000.0001)                -2.227100000000000E+02,      /* K = 18 */
(PID.TID 0000.0001)                -2.574700000000000E+02,      /* K = 19 */
(PID.TID 0000.0001)                -2.999300000000000E+02,      /* K = 20 */
(PID.TID 0000.0001)                -3.506800000000000E+02,      /* K = 21 */
(PID.TID 0000.0001)                -4.099300000000000E+02,      /* K = 22 */
(PID.TID 0000.0001)                -4.774700000000000E+02,      /* K = 23 */
(PID.TID 0000.0001)                -5.527100000000000E+02       /* K = 24 */
(PID.TID 0000.0001)     ;
(PID.TID 0000.0001) rF =   /* W-Interf. R coordinate (  units of r ) */
(PID.TID 0000.0001)                 0.000000000000000E+00,      /* K =  1 */
(PID.TID 0000.0001)                -1.000000000000000E+01,      /* K =  2 */
(PID.TID 0000.0001)                -2.000000000000000E+01,      /* K =  3 */
(PID.TID 0000.0001)                -3.000000000000000E+01,      /* K =  4 */
(PID.TID 0000.0001)                -4.000000000000000E+01,      /* K =  5 */
(PID.TID 0000.0001)                -5.000000000000000E+01,      /* K =  6 */
(PID.TID 0000.0001)                -6.000000000000000E+01,      /* K =  7 */
(PID.TID 0000.0001)                -7.000000000000000E+01,      /* K =  8 */
(PID.TID 0000.0001)                -8.001000000000001E+01,      /* K =  9 */
(PID.TID 0000.0001)                -9.004000000000001E+01,      /* K = 10 */
(PID.TID 0000.0001)                -1.001500000000000E+02,      /* K = 11 */
(PID.TID 0000.0001)                -1.104700000000000E+02,      /* K = 12 */
(PID.TID 0000.0001)                -1.212700000000000E+02,      /* K = 13 */
(PID.TID 0000.0001)                -1.330300000000000E+02,      /* K = 14 */
(PID.TID 0000.0001)                -1.464500000000000E+02,      /* K = 15 */
(PID.TID 0000.0001)                -1.624900000000000E+02,      /* K = 16 */
(PID.TID 0000.0001)                -1.823100000000000E+02,      /* K = 17 */
(PID.TID 0000.0001)                -2.071600000000000E+02,      /* K = 18 */
(PID.TID 0000.0001)                -2.382600000000000E+02,      /* K = 19 */
(PID.TID 0000.0001)                -2.766799999999999E+02,      /* K = 20 */
(PID.TID 0000.0001)                -3.231799999999999E+02,      /* K = 21 */
(PID.TID 0000.0001)                -3.781799999999999E+02,      /* K = 22 */
(PID.TID 0000.0001)                -4.416799999999999E+02,      /* K = 23 */
(PID.TID 0000.0001)                -5.132600000000000E+02,      /* K = 24 */
(PID.TID 0000.0001)                -5.921600000000000E+02       /* K = 25 */
(PID.TID 0000.0001)     ;
(PID.TID 0000.0001) deepFacC = /* deep-model grid factor @ cell-Center (-) */
(PID.TID 0000.0001)    24 @  1.000000000000000E+00              /* K =  1: 24 */
(PID.TID 0000.0001)     ;
(PID.TID 0000.0001) deepFacF = /* deep-model grid factor @ W-Interface (-) */
(PID.TID 0000.0001)    25 @  1.000000000000000E+00              /* K =  1: 25 */
(PID.TID 0000.0001)     ;
(PID.TID 0000.0001) rVel2wUnit = /* convert units: rVel -> wSpeed (=1 if z-coord)*/
(PID.TID 0000.0001)    25 @  1.000000000000000E+00              /* K =  1: 25 */
(PID.TID 0000.0001)     ;
(PID.TID 0000.0001) wUnit2rVel = /* convert units: wSpeed -> rVel (=1 if z-coord)*/
(PID.TID 0000.0001)    25 @  1.000000000000000E+00              /* K =  1: 25 */
(PID.TID 0000.0001)     ;
(PID.TID 0000.0001) dBdrRef = /* Vertical grad. of reference buoyancy [(m/s/r)^2] */
(PID.TID 0000.0001)     3 @  0.000000000000000E+00,             /* K =  1:  3 */
(PID.TID 0000.0001)                 2.710009878211941E-04,      /* K =  4 */
(PID.TID 0000.0001)     2 @  0.000000000000000E+00,             /* K =  5:  6 */
(PID.TID 0000.0001)                 2.636625418269014E-04,      /* K =  7 */
(PID.TID 0000.0001)                 2.558031727841269E-04,      /* K =  8 */
(PID.TID 0000.0001)                 0.000000000000000E+00,      /* K =  9 */
(PID.TID 0000.0001)                 2.465097609409217E-04,      /* K = 10 */
(PID.TID 0000.0001)                 2.352100435611475E-04,      /* K = 11 */
(PID.TID 0000.0001)                 0.000000000000000E+00,      /* K = 12 */
(PID.TID 0000.0001)                 2.059824810681317E-04,      /* K = 13 */
(PID.TID 0000.0001)                 1.780333657351851E-04,      /* K = 14 */
(PID.TID 0000.0001)                 0.000000000000000E+00,      /* K = 15 */
(PID.TID 0000.0001)                 1.205267729858628E-04,      /* K = 16 */
(PID.TID 0000.0001)                 9.301885331159507E-05,      /* K = 17 */
(PID.TID 0000.0001)                 7.126049663232381E-05,      /* K = 18 */
(PID.TID 0000.0001)                 5.492180008088694E-05,      /* K = 19 */
(PID.TID 0000.0001)                 4.297011162312342E-05,      /* K = 20 */
(PID.TID 0000.0001)                 6.668082313416848E-05,      /* K = 21 */
(PID.TID 0000.0001)                 0.000000000000000E+00,      /* K = 22 */
(PID.TID 0000.0001)                 2.326903218052740E-05,      /* K = 23 */
(PID.TID 0000.0001)                 1.977341620137575E-05       /* K = 24 */
(PID.TID 0000.0001)     ;
(PID.TID 0000.0001) rotateGrid = /* use rotated grid ( True/False ) */
(PID.TID 0000.0001)                   F
(PID.TID 0000.0001)     ;
(PID.TID 0000.0001) phiEuler = /* Euler angle, rotation about original z-coordinate [rad] */
(PID.TID 0000.0001)                 0.000000000000000E+00
(PID.TID 0000.0001)     ;
(PID.TID 0000.0001) thetaEuler = /* Euler angle, rotation about new x-coordinate [rad] */
(PID.TID 0000.0001)                 0.000000000000000E+00
(PID.TID 0000.0001)     ;
(PID.TID 0000.0001) psiEuler = /* Euler angle, rotation about new z-coordinate [rad] */
(PID.TID 0000.0001)                 0.000000000000000E+00
(PID.TID 0000.0001)     ;
(PID.TID 0000.0001) dxF =  /* dxF(:,1,:,1) ( units: m ) */
(PID.TID 0000.0001)                 2.139819531250000E+04,      /* I =  1 */
(PID.TID 0000.0001)                 2.134052929687500E+04,      /* I =  2 */
(PID.TID 0000.0001)                 2.128357812500000E+04,      /* I =  3 */
(PID.TID 0000.0001)      . . .
(PID.TID 0000.0001)                 2.055532617187500E+04,      /* I = 17 */
(PID.TID 0000.0001)                 2.050784179687500E+04,      /* I = 18 */
(PID.TID 0000.0001)                 2.046091406250000E+04,      /* I = 19 */
(PID.TID 0000.0001)                 2.041453515625000E+04,      /* I = 20 */
(PID.TID 0000.0001)                 2.036869335937500E+04,      /* I = 21 */
(PID.TID 0000.0001)                 2.032338281250000E+04,      /* I = 22 */
(PID.TID 0000.0001)      . . .
(PID.TID 0000.0001)                 1.974061523437500E+04,      /* I = 36 */
(PID.TID 0000.0001)                 1.970239843750000E+04,      /* I = 37 */
(PID.TID 0000.0001)                 1.966460546875000E+04,      /* I = 38 */
(PID.TID 0000.0001)                 1.962722656250000E+04,      /* I = 39 */
(PID.TID 0000.0001)                 1.959025781250000E+04,      /* I = 40 */
(PID.TID 0000.0001)                 1.955369531250000E+04,      /* I = 41 */
(PID.TID 0000.0001)      . . .
(PID.TID 0000.0001)                 1.908145703125000E+04,      /* I = 55 */
(PID.TID 0000.0001)                 1.905037304687500E+04,      /* I = 56 */
(PID.TID 0000.0001)                 1.901961914062500E+04,      /* I = 57 */
(PID.TID 0000.0001)                 1.898919335937500E+04,      /* I = 58 */
(PID.TID 0000.0001)                 1.895908984375000E+04,      /* I = 59 */
(PID.TID 0000.0001)                 1.892930468750000E+04,      /* I = 60 */
(PID.TID 0000.0001)      . . .
(PID.TID 0000.0001)                 1.854391015625000E+04,      /* I = 74 */
(PID.TID 0000.0001)                 1.851851367187500E+04,      /* I = 75 */
(PID.TID 0000.0001)                 1.849338671875000E+04       /* I = 76 */
(PID.TID 0000.0001)     ;
(PID.TID 0000.0001) dxF =  /* dxF(1,:,1,:) ( units: m ) */
(PID.TID 0000.0001)                 2.139819531250000E+04,      /* J =  1 */
(PID.TID 0000.0001)                 2.142048632812500E+04,      /* J =  2 */
(PID.TID 0000.0001)                 2.144250976562500E+04,      /* J =  3 */
(PID.TID 0000.0001)      . . .
(PID.TID 0000.0001)                 2.170506640625000E+04,      /* J = 16 */
(PID.TID 0000.0001)                 2.172347265625000E+04,      /* J = 17 */
(PID.TID 0000.0001)                 2.174162890625000E+04,      /* J = 18 */
(PID.TID 0000.0001)                 2.175953515625000E+04,      /* J = 19 */
(PID.TID 0000.0001)                 2.177719140625000E+04,      /* J = 20 */
(PID.TID 0000.0001)                 2.179459960937500E+04,      /* J = 21 */
(PID.TID 0000.0001)      . . .
(PID.TID 0000.0001)                 2.199872656250000E+04,      /* J = 34 */
(PID.TID 0000.0001)                 2.201274804687500E+04,      /* J = 35 */
(PID.TID 0000.0001)                 2.202653515625000E+04,      /* J = 36 */
(PID.TID 0000.0001)                 2.204008593750000E+04,      /* J = 37 */
(PID.TID 0000.0001)                 2.205340234375000E+04,      /* J = 38 */
(PID.TID 0000.0001)                 2.206648242187500E+04,      /* J = 39 */
(PID.TID 0000.0001)      . . .
(PID.TID 0000.0001)                 2.221550390625000E+04,      /* J = 52 */
(PID.TID 0000.0001)                 2.222536914062500E+04,      /* J = 53 */
(PID.TID 0000.0001)                 2.223500585937500E+04,      /* J = 54 */
(PID.TID 0000.0001)                 2.224441992187500E+04,      /* J = 55 */
(PID.TID 0000.0001)                 2.225360742187500E+04,      /* J = 56 */
(PID.TID 0000.0001)                 2.226257031250000E+04,      /* J = 57 */
(PID.TID 0000.0001)      . . .
(PID.TID 0000.0001)                 2.235884179687500E+04,      /* J = 70 */
(PID.TID 0000.0001)                 2.236470312500000E+04,      /* J = 71 */
(PID.TID 0000.0001)                 2.237034375000000E+04       /* J = 72 */
(PID.TID 0000.0001)     ;
(PID.TID 0000.0001) dyF =  /* dyF(:,1,:,1) ( units: m ) */
(PID.TID 0000.0001)                 1.641875585937500E+04,      /* I =  1 */
(PID.TID 0000.0001)                 1.642790039062500E+04,      /* I =  2 */
(PID.TID 0000.0001)                 1.643717187500000E+04,      /* I =  3 */
(PID.TID 0000.0001)      . . .
(PID.TID 0000.0001)                 1.657813476562500E+04,      /* I = 17 */
(PID.TID 0000.0001)                 1.658886132812500E+04,      /* I = 18 */
(PID.TID 0000.0001)                 1.659965429687500E+04,      /* I = 19 */
(PID.TID 0000.0001)                 1.661051562500000E+04,      /* I = 20 */
(PID.TID 0000.0001)                 1.662143945312500E+04,      /* I = 21 */
(PID.TID 0000.0001)                 1.663242578125000E+04,      /* I = 22 */
(PID.TID 0000.0001)      . . .
(PID.TID 0000.0001)                 1.679093945312500E+04,      /* I = 36 */
(PID.TID 0000.0001)                 1.680249218750000E+04,      /* I = 37 */
(PID.TID 0000.0001)                 1.681406250000000E+04,      /* I = 38 */
(PID.TID 0000.0001)                 1.682565039062500E+04,      /* I = 39 */
(PID.TID 0000.0001)                 1.683724804687500E+04,      /* I = 40 */
(PID.TID 0000.0001)                 1.684885937500000E+04,      /* I = 41 */
(PID.TID 0000.0001)      . . .
(PID.TID 0000.0001)                 1.701138671875000E+04,      /* I = 55 */
(PID.TID 0000.0001)                 1.702291992187500E+04,      /* I = 56 */
(PID.TID 0000.0001)                 1.703443359375000E+04,      /* I = 57 */
(PID.TID 0000.0001)                 1.704592578125000E+04,      /* I = 58 */
(PID.TID 0000.0001)                 1.705739453125000E+04,      /* I = 59 */
(PID.TID 0000.0001)                 1.706883984375000E+04,      /* I = 60 */
(PID.TID 0000.0001)      . . .
(PID.TID 0000.0001)                 1.722574414062500E+04,      /* I = 74 */
(PID.TID 0000.0001)                 1.723666210937500E+04,      /* I = 75 */
(PID.TID 0000.0001)                 1.724753515625000E+04       /* I = 76 */
(PID.TID 0000.0001)     ;
(PID.TID 0000.0001) dyF =  /* dyF(1,:,1,:) ( units: m ) */
(PID.TID 0000.0001)                 1.641875585937500E+04,      /* J =  1 */
(PID.TID 0000.0001)                 1.641383984375000E+04,      /* J =  2 */
(PID.TID 0000.0001)                 1.640894335937500E+04,      /* J =  3 */
(PID.TID 0000.0001)      . . .
(PID.TID 0000.0001)                 1.634750000000000E+04,      /* J = 16 */
(PID.TID 0000.0001)                 1.634298046875000E+04,      /* J = 17 */
(PID.TID 0000.0001)                 1.633849707031250E+04,      /* J = 18 */
(PID.TID 0000.0001)                 1.633404882812500E+04,      /* J = 19 */
(PID.TID 0000.0001)                 1.632963671875000E+04,      /* J = 20 */
(PID.TID 0000.0001)                 1.632526171875000E+04,      /* J = 21 */
(PID.TID 0000.0001)      . . .
(PID.TID 0000.0001)                 1.627213867187500E+04,      /* J = 34 */
(PID.TID 0000.0001)                 1.626836621093750E+04,      /* J = 35 */
(PID.TID 0000.0001)                 1.626464160156250E+04,      /* J = 36 */
(PID.TID 0000.0001)                 1.626096679687500E+04,      /* J = 37 */
(PID.TID 0000.0001)                 1.625734082031250E+04,      /* J = 38 */
(PID.TID 0000.0001)                 1.625376464843750E+04,      /* J = 39 */
(PID.TID 0000.0001)      . . .
(PID.TID 0000.0001)                 1.621206933593750E+04,      /* J = 52 */
(PID.TID 0000.0001)                 1.620924804687500E+04,      /* J = 53 */
(PID.TID 0000.0001)                 1.620648242187500E+04,      /* J = 54 */
(PID.TID 0000.0001)                 1.620377539062500E+04,      /* J = 55 */
(PID.TID 0000.0001)                 1.620112695312500E+04,      /* J = 56 */
(PID.TID 0000.0001)                 1.619853613281250E+04,      /* J = 57 */
(PID.TID 0000.0001)      . . .
(PID.TID 0000.0001)                 1.617031640625000E+04,      /* J = 70 */
(PID.TID 0000.0001)                 1.616857617187500E+04,      /* J = 71 */
(PID.TID 0000.0001)                 1.616689843750000E+04       /* J = 72 */
(PID.TID 0000.0001)     ;
(PID.TID 0000.0001) dxG =  /* dxG(:,1,:,1) ( units: m ) */
(PID.TID 0000.0001)                 2.138695117187500E+04,      /* I =  1 */
(PID.TID 0000.0001)                 2.132937304687500E+04,      /* I =  2 */
(PID.TID 0000.0001)                 2.127251171875000E+04,      /* I =  3 */
(PID.TID 0000.0001)      . . .
(PID.TID 0000.0001)                 2.054548828125000E+04,      /* I = 17 */
(PID.TID 0000.0001)                 2.049808984375000E+04,      /* I = 18 */
(PID.TID 0000.0001)                 2.045124609375000E+04,      /* I = 19 */
(PID.TID 0000.0001)                 2.040495117187500E+04,      /* I = 20 */
(PID.TID 0000.0001)                 2.035919335937500E+04,      /* I = 21 */
(PID.TID 0000.0001)                 2.031396484375000E+04,      /* I = 22 */
(PID.TID 0000.0001)      . . .
(PID.TID 0000.0001)                 1.973230859375000E+04,      /* I = 36 */
(PID.TID 0000.0001)                 1.969416796875000E+04,      /* I = 37 */
(PID.TID 0000.0001)                 1.965644921875000E+04,      /* I = 38 */
(PID.TID 0000.0001)                 1.961914453125000E+04,      /* I = 39 */
(PID.TID 0000.0001)                 1.958224804687500E+04,      /* I = 40 */
(PID.TID 0000.0001)                 1.954575781250000E+04,      /* I = 41 */
(PID.TID 0000.0001)      . . .
(PID.TID 0000.0001)                 1.907447070312500E+04,      /* I = 55 */
(PID.TID 0000.0001)                 1.904345117187500E+04,      /* I = 56 */
(PID.TID 0000.0001)                 1.901275976562500E+04,      /* I = 57 */
(PID.TID 0000.0001)                 1.898239453125000E+04,      /* I = 58 */
(PID.TID 0000.0001)                 1.895235351562500E+04,      /* I = 59 */
(PID.TID 0000.0001)                 1.892262890625000E+04,      /* I = 60 */
(PID.TID 0000.0001)      . . .
(PID.TID 0000.0001)                 1.853801953125000E+04,      /* I = 74 */
(PID.TID 0000.0001)                 1.851267578125000E+04,      /* I = 75 */
(PID.TID 0000.0001)                 1.848759960937500E+04       /* I = 76 */
(PID.TID 0000.0001)     ;
(PID.TID 0000.0001) dxG =  /* dxG(1,:,1,:) ( units: m ) */
(PID.TID 0000.0001)                 2.138695117187500E+04,      /* J =  1 */
(PID.TID 0000.0001)                 2.140937500000000E+04,      /* J =  2 */
(PID.TID 0000.0001)                 2.143153125000000E+04,      /* J =  3 */
(PID.TID 0000.0001)      . . .
(PID.TID 0000.0001)                 2.169576953125000E+04,      /* J = 16 */
(PID.TID 0000.0001)                 2.171430078125000E+04,      /* J = 17 */
(PID.TID 0000.0001)                 2.173258203125000E+04,      /* J = 18 */
(PID.TID 0000.0001)                 2.175061328125000E+04,      /* J = 19 */
(PID.TID 0000.0001)                 2.176839453125000E+04,      /* J = 20 */
(PID.TID 0000.0001)                 2.178592578125000E+04,      /* J = 21 */
(PID.TID 0000.0001)      . . .
(PID.TID 0000.0001)                 2.199162500000000E+04,      /* J = 34 */
(PID.TID 0000.0001)                 2.200576757812500E+04,      /* J = 35 */
(PID.TID 0000.0001)                 2.201967187500000E+04,      /* J = 36 */
(PID.TID 0000.0001)                 2.203333984375000E+04,      /* J = 37 */
(PID.TID 0000.0001)                 2.204677343750000E+04,      /* J = 38 */
(PID.TID 0000.0001)                 2.205997070312500E+04,      /* J = 39 */
(PID.TID 0000.0001)      . . .
(PID.TID 0000.0001)                 2.221048632812500E+04,      /* J = 52 */
(PID.TID 0000.0001)                 2.222046484375000E+04,      /* J = 53 */
(PID.TID 0000.0001)                 2.223021484375000E+04,      /* J = 54 */
(PID.TID 0000.0001)                 2.223974023437500E+04,      /* J = 55 */
(PID.TID 0000.0001)                 2.224904101562500E+04,      /* J = 56 */
(PID.TID 0000.0001)                 2.225811718750000E+04,      /* J = 57 */
(PID.TID 0000.0001)      . . .
(PID.TID 0000.0001)                 2.235583007812500E+04,      /* J = 70 */
(PID.TID 0000.0001)                 2.236179882812500E+04,      /* J = 71 */
(PID.TID 0000.0001)                 2.236755078125000E+04       /* J = 72 */
(PID.TID 0000.0001)     ;
(PID.TID 0000.0001) dyG =  /* dyG(:,1,:,1) ( units: m ) */
(PID.TID 0000.0001)                 1.641423242187500E+04,      /* I =  1 */
(PID.TID 0000.0001)                 1.642331250000000E+04,      /* I =  2 */
(PID.TID 0000.0001)                 1.643252148437500E+04,      /* I =  3 */
(PID.TID 0000.0001)      . . .
(PID.TID 0000.0001)                 1.657280078125000E+04,      /* I = 17 */
(PID.TID 0000.0001)                 1.658348828125000E+04,      /* I = 18 */
(PID.TID 0000.0001)                 1.659425000000000E+04,      /* I = 19 */
(PID.TID 0000.0001)                 1.660507812500000E+04,      /* I = 20 */
(PID.TID 0000.0001)                 1.661597070312500E+04,      /* I = 21 */
(PID.TID 0000.0001)                 1.662692578125000E+04,      /* I = 22 */
(PID.TID 0000.0001)      . . .
(PID.TID 0000.0001)                 1.678516992187500E+04,      /* I = 36 */
(PID.TID 0000.0001)                 1.679671289062500E+04,      /* I = 37 */
(PID.TID 0000.0001)                 1.680827539062500E+04,      /* I = 38 */
(PID.TID 0000.0001)                 1.681985546875000E+04,      /* I = 39 */
(PID.TID 0000.0001)                 1.683144726562500E+04,      /* I = 40 */
(PID.TID 0000.0001)                 1.684305273437500E+04,      /* I = 41 */
(PID.TID 0000.0001)      . . .
(PID.TID 0000.0001)                 1.700561328125000E+04,      /* I = 55 */
(PID.TID 0000.0001)                 1.701715625000000E+04,      /* I = 56 */
(PID.TID 0000.0001)                 1.702867968750000E+04,      /* I = 57 */
(PID.TID 0000.0001)                 1.704018164062500E+04,      /* I = 58 */
(PID.TID 0000.0001)                 1.705166210937500E+04,      /* I = 59 */
(PID.TID 0000.0001)                 1.706311914062500E+04,      /* I = 60 */
(PID.TID 0000.0001)      . . .
(PID.TID 0000.0001)                 1.722026757812500E+04,      /* I = 74 */
(PID.TID 0000.0001)                 1.723120898437500E+04,      /* I = 75 */
(PID.TID 0000.0001)                 1.724210351562500E+04       /* I = 76 */
(PID.TID 0000.0001)     ;
(PID.TID 0000.0001) dyG =  /* dyG(1,:,1,:) ( units: m ) */
(PID.TID 0000.0001)                 1.641423242187500E+04,      /* J =  1 */
(PID.TID 0000.0001)                 1.640936328125000E+04,      /* J =  2 */
(PID.TID 0000.0001)                 1.640451171875000E+04,      /* J =  3 */
(PID.TID 0000.0001)      . . .
(PID.TID 0000.0001)                 1.634358105468750E+04,      /* J = 16 */
(PID.TID 0000.0001)                 1.633909765625000E+04,      /* J = 17 */
(PID.TID 0000.0001)                 1.633464746093750E+04,      /* J = 18 */
(PID.TID 0000.0001)                 1.633023144531250E+04,      /* J = 19 */
(PID.TID 0000.0001)                 1.632585253906250E+04,      /* J = 20 */
(PID.TID 0000.0001)                 1.632150878906250E+04,      /* J = 21 */
(PID.TID 0000.0001)      . . .
(PID.TID 0000.0001)                 1.626874707031250E+04,      /* J = 34 */
(PID.TID 0000.0001)                 1.626499902343750E+04,      /* J = 35 */
(PID.TID 0000.0001)                 1.626129785156250E+04,      /* J = 36 */
(PID.TID 0000.0001)                 1.625764550781250E+04,      /* J = 37 */
(PID.TID 0000.0001)                 1.625404199218750E+04,      /* J = 38 */
(PID.TID 0000.0001)                 1.625048828125000E+04,      /* J = 39 */
(PID.TID 0000.0001)      . . .
(PID.TID 0000.0001)                 1.620903710937500E+04,      /* J = 52 */
(PID.TID 0000.0001)                 1.620623144531250E+04,      /* J = 53 */
(PID.TID 0000.0001)                 1.620348144531250E+04,      /* J = 54 */
(PID.TID 0000.0001)                 1.620078906250000E+04,      /* J = 55 */
(PID.TID 0000.0001)                 1.619815527343750E+04,      /* J = 56 */
(PID.TID 0000.0001)                 1.619557812500000E+04,      /* J = 57 */
(PID.TID 0000.0001)      . . .
(PID.TID 0000.0001)                 1.616750878906250E+04,      /* J = 70 */
(PID.TID 0000.0001)                 1.616577636718750E+04,      /* J = 71 */
(PID.TID 0000.0001)                 1.616410742187500E+04       /* J = 72 */
(PID.TID 0000.0001)     ;
(PID.TID 0000.0001) dxC =  /* dxC(:,1,:,1) ( units: m ) */
(PID.TID 0000.0001)                 2.142730078125000E+04,      /* I =  1 */
(PID.TID 0000.0001)                 2.136927343750000E+04,      /* I =  2 */
(PID.TID 0000.0001)                 2.131196484375000E+04,      /* I =  3 */
(PID.TID 0000.0001)      . . .
(PID.TID 0000.0001)                 2.057927929687500E+04,      /* I = 17 */
(PID.TID 0000.0001)                 2.053151367187500E+04,      /* I = 18 */
(PID.TID 0000.0001)                 2.048431054687500E+04,      /* I = 19 */
(PID.TID 0000.0001)                 2.043765625000000E+04,      /* I = 20 */
(PID.TID 0000.0001)                 2.039154687500000E+04,      /* I = 21 */
(PID.TID 0000.0001)                 2.034597265625000E+04,      /* I = 22 */
(PID.TID 0000.0001)      . . .
(PID.TID 0000.0001)                 1.975988281250000E+04,      /* I = 36 */
(PID.TID 0000.0001)                 1.972145312500000E+04,      /* I = 37 */
(PID.TID 0000.0001)                 1.968344921875000E+04,      /* I = 38 */
(PID.TID 0000.0001)                 1.964586523437500E+04,      /* I = 39 */
(PID.TID 0000.0001)                 1.960869140625000E+04,      /* I = 40 */
(PID.TID 0000.0001)                 1.957192578125000E+04,      /* I = 41 */
(PID.TID 0000.0001)      . . .
(PID.TID 0000.0001)                 1.909712304687500E+04,      /* I = 55 */
(PID.TID 0000.0001)                 1.906587304687500E+04,      /* I = 56 */
(PID.TID 0000.0001)                 1.903495507812500E+04,      /* I = 57 */
(PID.TID 0000.0001)                 1.900436523437500E+04,      /* I = 58 */
(PID.TID 0000.0001)                 1.897410156250000E+04,      /* I = 59 */
(PID.TID 0000.0001)                 1.894415820312500E+04,      /* I = 60 */
(PID.TID 0000.0001)      . . .
(PID.TID 0000.0001)                 1.855671093750000E+04,      /* I = 74 */
(PID.TID 0000.0001)                 1.853117773437500E+04,      /* I = 75 */
(PID.TID 0000.0001)                 1.850591601562500E+04       /* I = 76 */
(PID.TID 0000.0001)     ;
(PID.TID 0000.0001) dxC =  /* dxC(1,:,1,:) ( units: m ) */
(PID.TID 0000.0001)                 2.142730078125000E+04,      /* J =  1 */
(PID.TID 0000.0001)                 2.144967968750000E+04,      /* J =  2 */
(PID.TID 0000.0001)                 2.147179101562500E+04,      /* J =  3 */
(PID.TID 0000.0001)      . . .
(PID.TID 0000.0001)                 2.173536914062500E+04,      /* J = 16 */
(PID.TID 0000.0001)                 2.175384570312500E+04,      /* J = 17 */
(PID.TID 0000.0001)                 2.177207031250000E+04,      /* J = 18 */
(PID.TID 0000.0001)                 2.179004296875000E+04,      /* J = 19 */
(PID.TID 0000.0001)                 2.180776757812500E+04,      /* J = 20 */
(PID.TID 0000.0001)                 2.182524218750000E+04,      /* J = 21 */
(PID.TID 0000.0001)      . . .
(PID.TID 0000.0001)                 2.203012695312500E+04,      /* J = 34 */
(PID.TID 0000.0001)                 2.204420117187500E+04,      /* J = 35 */
(PID.TID 0000.0001)                 2.205803710937500E+04,      /* J = 36 */
(PID.TID 0000.0001)                 2.207163867187500E+04,      /* J = 37 */
(PID.TID 0000.0001)                 2.208500195312500E+04,      /* J = 38 */
(PID.TID 0000.0001)                 2.209813281250000E+04,      /* J = 39 */
(PID.TID 0000.0001)      . . .
(PID.TID 0000.0001)                 2.224768945312500E+04,      /* J = 52 */
(PID.TID 0000.0001)                 2.225758984375000E+04,      /* J = 53 */
(PID.TID 0000.0001)                 2.226726171875000E+04,      /* J = 54 */
(PID.TID 0000.0001)                 2.227670898437500E+04,      /* J = 55 */
(PID.TID 0000.0001)                 2.228592968750000E+04,      /* J = 56 */
(PID.TID 0000.0001)                 2.229492382812500E+04,      /* J = 57 */
(PID.TID 0000.0001)      . . .
(PID.TID 0000.0001)                 2.239153515625000E+04,      /* J = 70 */
(PID.TID 0000.0001)                 2.239741601562500E+04,      /* J = 71 */
(PID.TID 0000.0001)                 2.240307617187500E+04       /* J = 72 */
(PID.TID 0000.0001)     ;
(PID.TID 0000.0001) dyC =  /* dyC(:,1,:,1) ( units: m ) */
(PID.TID 0000.0001)                 1.642122070312500E+04,      /* I =  1 */
(PID.TID 0000.0001)                 1.643041210937500E+04,      /* I =  2 */
(PID.TID 0000.0001)                 1.643973046875000E+04,      /* I =  3 */
(PID.TID 0000.0001)      . . .
(PID.TID 0000.0001)                 1.658140234375000E+04,      /* I = 17 */
(PID.TID 0000.0001)                 1.659217968750000E+04,      /* I = 18 */
(PID.TID 0000.0001)                 1.660302734375000E+04,      /* I = 19 */
(PID.TID 0000.0001)                 1.661394140625000E+04,      /* I = 20 */
(PID.TID 0000.0001)                 1.662491796875000E+04,      /* I = 21 */
(PID.TID 0000.0001)                 1.663595703125000E+04,      /* I = 22 */
(PID.TID 0000.0001)      . . .
(PID.TID 0000.0001)                 1.679521875000000E+04,      /* I = 36 */
(PID.TID 0000.0001)                 1.680682617187500E+04,      /* I = 37 */
(PID.TID 0000.0001)                 1.681844921875000E+04,      /* I = 38 */
(PID.TID 0000.0001)                 1.683008984375000E+04,      /* I = 39 */
(PID.TID 0000.0001)                 1.684174218750000E+04,      /* I = 40 */
(PID.TID 0000.0001)                 1.685340429687500E+04,      /* I = 41 */
(PID.TID 0000.0001)      . . .
(PID.TID 0000.0001)                 1.701665429687500E+04,      /* I = 55 */
(PID.TID 0000.0001)                 1.702823632812500E+04,      /* I = 56 */
(PID.TID 0000.0001)                 1.703979882812500E+04,      /* I = 57 */
(PID.TID 0000.0001)                 1.705134179687500E+04,      /* I = 58 */
(PID.TID 0000.0001)                 1.706285937500000E+04,      /* I = 59 */
(PID.TID 0000.0001)                 1.707435351562500E+04,      /* I = 60 */
(PID.TID 0000.0001)      . . .
(PID.TID 0000.0001)                 1.723191406250000E+04,      /* I = 74 */
(PID.TID 0000.0001)                 1.724287500000000E+04,      /* I = 75 */
(PID.TID 0000.0001)                 1.725379296875000E+04       /* I = 76 */
(PID.TID 0000.0001)     ;
(PID.TID 0000.0001) dyC =  /* dyC(1,:,1,:) ( units: m ) */
(PID.TID 0000.0001)                 1.642122070312500E+04,      /* J =  1 */
(PID.TID 0000.0001)                 1.641629687500000E+04,      /* J =  2 */
(PID.TID 0000.0001)                 1.641139062500000E+04,      /* J =  3 */
(PID.TID 0000.0001)      . . .
(PID.TID 0000.0001)                 1.634977148437500E+04,      /* J = 16 */
(PID.TID 0000.0001)                 1.634523632812500E+04,      /* J = 17 */
(PID.TID 0000.0001)                 1.634073437500000E+04,      /* J = 18 */
(PID.TID 0000.0001)                 1.633626855468750E+04,      /* J = 19 */
(PID.TID 0000.0001)                 1.633183789062500E+04,      /* J = 20 */
(PID.TID 0000.0001)                 1.632744433593750E+04,      /* J = 21 */
(PID.TID 0000.0001)      . . .
(PID.TID 0000.0001)                 1.627404199218750E+04,      /* J = 34 */
(PID.TID 0000.0001)                 1.627024609375000E+04,      /* J = 35 */
(PID.TID 0000.0001)                 1.626649804687500E+04,      /* J = 36 */
(PID.TID 0000.0001)                 1.626279785156250E+04,      /* J = 37 */
(PID.TID 0000.0001)                 1.625914746093750E+04,      /* J = 38 */
(PID.TID 0000.0001)                 1.625554687500000E+04,      /* J = 39 */
(PID.TID 0000.0001)      . . .
(PID.TID 0000.0001)                 1.621350195312500E+04,      /* J = 52 */
(PID.TID 0000.0001)                 1.621065136718750E+04,      /* J = 53 */
(PID.TID 0000.0001)                 1.620785839843750E+04,      /* J = 54 */
(PID.TID 0000.0001)                 1.620512207031250E+04,      /* J = 55 */
(PID.TID 0000.0001)                 1.620244433593750E+04,      /* J = 56 */
(PID.TID 0000.0001)                 1.619982421875000E+04,      /* J = 57 */
(PID.TID 0000.0001)      . . .
(PID.TID 0000.0001)                 1.617121093750000E+04,      /* J = 70 */
(PID.TID 0000.0001)                 1.616943847656250E+04,      /* J = 71 */
(PID.TID 0000.0001)                 1.616772949218750E+04       /* J = 72 */
(PID.TID 0000.0001)     ;
(PID.TID 0000.0001) dxV =  /* dxV(:,1,:,1) ( units: m ) */
(PID.TID 0000.0001)                 2.141601171875000E+04,      /* I =  1 */
(PID.TID 0000.0001)                 2.135807226562500E+04,      /* I =  2 */
(PID.TID 0000.0001)                 2.130085351562500E+04,      /* I =  3 */
(PID.TID 0000.0001)      . . .
(PID.TID 0000.0001)                 2.056939843750000E+04,      /* I = 17 */
(PID.TID 0000.0001)                 2.052171875000000E+04,      /* I = 18 */
(PID.TID 0000.0001)                 2.047459960937500E+04,      /* I = 19 */
(PID.TID 0000.0001)                 2.042803125000000E+04,      /* I = 20 */
(PID.TID 0000.0001)                 2.038200390625000E+04,      /* I = 21 */
(PID.TID 0000.0001)                 2.033651367187500E+04,      /* I = 22 */
(PID.TID 0000.0001)      . . .
(PID.TID 0000.0001)                 1.975153906250000E+04,      /* I = 36 */
(PID.TID 0000.0001)                 1.971318554687500E+04,      /* I = 37 */
(PID.TID 0000.0001)                 1.967525585937500E+04,      /* I = 38 */
(PID.TID 0000.0001)                 1.963774414062500E+04,      /* I = 39 */
(PID.TID 0000.0001)                 1.960064648437500E+04,      /* I = 40 */
(PID.TID 0000.0001)                 1.956395312500000E+04,      /* I = 41 */
(PID.TID 0000.0001)      . . .
(PID.TID 0000.0001)                 1.909010546875000E+04,      /* I = 55 */
(PID.TID 0000.0001)                 1.905891992187500E+04,      /* I = 56 */
(PID.TID 0000.0001)                 1.902806445312500E+04,      /* I = 57 */
(PID.TID 0000.0001)                 1.899753710937500E+04,      /* I = 58 */
(PID.TID 0000.0001)                 1.896733398437500E+04,      /* I = 59 */
(PID.TID 0000.0001)                 1.893745117187500E+04,      /* I = 60 */
(PID.TID 0000.0001)      . . .
(PID.TID 0000.0001)                 1.855079492187500E+04,      /* I = 74 */
(PID.TID 0000.0001)                 1.852531445312500E+04,      /* I = 75 */
(PID.TID 0000.0001)                 1.850010351562500E+04       /* I = 76 */
(PID.TID 0000.0001)     ;
(PID.TID 0000.0001) dxV =  /* dxV(1,:,1,:) ( units: m ) */
(PID.TID 0000.0001)                 2.141601171875000E+04,      /* J =  1 */
(PID.TID 0000.0001)                 2.143852539062500E+04,      /* J =  2 */
(PID.TID 0000.0001)                 2.146076953125000E+04,      /* J =  3 */
(PID.TID 0000.0001)      . . .
(PID.TID 0000.0001)                 2.172603515625000E+04,      /* J = 16 */
(PID.TID 0000.0001)                 2.174463867187500E+04,      /* J = 17 */
(PID.TID 0000.0001)                 2.176298828125000E+04,      /* J = 18 */
(PID.TID 0000.0001)                 2.178108789062500E+04,      /* J = 19 */
(PID.TID 0000.0001)                 2.179893750000000E+04,      /* J = 20 */
(PID.TID 0000.0001)                 2.181653515625000E+04,      /* J = 21 */
(PID.TID 0000.0001)      . . .
(PID.TID 0000.0001)                 2.202300000000000E+04,      /* J = 34 */
(PID.TID 0000.0001)                 2.203719335937500E+04,      /* J = 35 */
(PID.TID 0000.0001)                 2.205114843750000E+04,      /* J = 36 */
(PID.TID 0000.0001)                 2.206486718750000E+04,      /* J = 37 */
(PID.TID 0000.0001)                 2.207834960937500E+04,      /* J = 38 */
(PID.TID 0000.0001)                 2.209159570312500E+04,      /* J = 39 */
(PID.TID 0000.0001)      . . .
(PID.TID 0000.0001)                 2.224265429687500E+04,      /* J = 52 */
(PID.TID 0000.0001)                 2.225266796875000E+04,      /* J = 53 */
(PID.TID 0000.0001)                 2.226245312500000E+04,      /* J = 54 */
(PID.TID 0000.0001)                 2.227201367187500E+04,      /* J = 55 */
(PID.TID 0000.0001)                 2.228134765625000E+04,      /* J = 56 */
(PID.TID 0000.0001)                 2.229045507812500E+04,      /* J = 57 */
(PID.TID 0000.0001)      . . .
(PID.TID 0000.0001)                 2.238851171875000E+04,      /* J = 70 */
(PID.TID 0000.0001)                 2.239450390625000E+04,      /* J = 71 */
(PID.TID 0000.0001)                 2.240027343750000E+04       /* J = 72 */
(PID.TID 0000.0001)     ;
(PID.TID 0000.0001) dyU =  /* dyU(:,1,:,1) ( units: m ) */
(PID.TID 0000.0001)                 1.641667382812500E+04,      /* I =  1 */
(PID.TID 0000.0001)                 1.642580078125000E+04,      /* I =  2 */
(PID.TID 0000.0001)                 1.643505664062500E+04,      /* I =  3 */
(PID.TID 0000.0001)      . . .
(PID.TID 0000.0001)                 1.657604101562500E+04,      /* I = 17 */
(PID.TID 0000.0001)                 1.658678125000000E+04,      /* I = 18 */
(PID.TID 0000.0001)                 1.659759570312500E+04,      /* I = 19 */
(PID.TID 0000.0001)                 1.660847656250000E+04,      /* I = 20 */
(PID.TID 0000.0001)                 1.661942187500000E+04,      /* I = 21 */
(PID.TID 0000.0001)                 1.663042968750000E+04,      /* I = 22 */
(PID.TID 0000.0001)      . . .
(PID.TID 0000.0001)                 1.678942382812500E+04,      /* I = 36 */
(PID.TID 0000.0001)                 1.680101953125000E+04,      /* I = 37 */
(PID.TID 0000.0001)                 1.681263671875000E+04,      /* I = 38 */
(PID.TID 0000.0001)                 1.682426757812500E+04,      /* I = 39 */
(PID.TID 0000.0001)                 1.683591406250000E+04,      /* I = 40 */
(PID.TID 0000.0001)                 1.684757226562500E+04,      /* I = 41 */
(PID.TID 0000.0001)      . . .
(PID.TID 0000.0001)                 1.701085546875000E+04,      /* I = 55 */
(PID.TID 0000.0001)                 1.702244726562500E+04,      /* I = 56 */
(PID.TID 0000.0001)                 1.703402148437500E+04,      /* I = 57 */
(PID.TID 0000.0001)                 1.704557226562500E+04,      /* I = 58 */
(PID.TID 0000.0001)                 1.705710351562500E+04,      /* I = 59 */
(PID.TID 0000.0001)                 1.706860937500000E+04,      /* I = 60 */
(PID.TID 0000.0001)      . . .
(PID.TID 0000.0001)                 1.722641601562500E+04,      /* I = 74 */
(PID.TID 0000.0001)                 1.723740039062500E+04,      /* I = 75 */
(PID.TID 0000.0001)                 1.724833984375000E+04       /* I = 76 */
(PID.TID 0000.0001)     ;
(PID.TID 0000.0001) dyU =  /* dyU(1,:,1,:) ( units: m ) */
(PID.TID 0000.0001)                 1.641667382812500E+04,      /* J =  1 */
(PID.TID 0000.0001)                 1.641179492187500E+04,      /* J =  2 */
(PID.TID 0000.0001)                 1.640693554687500E+04,      /* J =  3 */
(PID.TID 0000.0001)      . . .
(PID.TID 0000.0001)                 1.634583593750000E+04,      /* J = 16 */
(PID.TID 0000.0001)                 1.634133496093750E+04,      /* J = 17 */
(PID.TID 0000.0001)                 1.633686816406250E+04,      /* J = 18 */
(PID.TID 0000.0001)                 1.633243457031250E+04,      /* J = 19 */
(PID.TID 0000.0001)                 1.632803710937500E+04,      /* J = 20 */
(PID.TID 0000.0001)                 1.632367578125000E+04,      /* J = 21 */
(PID.TID 0000.0001)      . . .
(PID.TID 0000.0001)                 1.627063867187500E+04,      /* J = 34 */
(PID.TID 0000.0001)                 1.626686718750000E+04,      /* J = 35 */
(PID.TID 0000.0001)                 1.626314257812500E+04,      /* J = 36 */
(PID.TID 0000.0001)                 1.625946582031250E+04,      /* J = 37 */
(PID.TID 0000.0001)                 1.625583789062500E+04,      /* J = 38 */
(PID.TID 0000.0001)                 1.625225878906250E+04,      /* J = 39 */
(PID.TID 0000.0001)      . . .
(PID.TID 0000.0001)                 1.621046191406250E+04,      /* J = 52 */
(PID.TID 0000.0001)                 1.620762695312500E+04,      /* J = 53 */
(PID.TID 0000.0001)                 1.620484960937500E+04,      /* J = 54 */
(PID.TID 0000.0001)                 1.620212890625000E+04,      /* J = 55 */
(PID.TID 0000.0001)                 1.619946484375000E+04,      /* J = 56 */
(PID.TID 0000.0001)                 1.619685937500000E+04,      /* J = 57 */
(PID.TID 0000.0001)      . . .
(PID.TID 0000.0001)                 1.616839746093750E+04,      /* J = 70 */
(PID.TID 0000.0001)                 1.616663476562500E+04,      /* J = 71 */
(PID.TID 0000.0001)                 1.616493457031250E+04       /* J = 72 */
(PID.TID 0000.0001)     ;
(PID.TID 0000.0001) rA  =  /* rA (:,1,:,1) ( units: m^2 ) */
(PID.TID 0000.0001)                 3.513317440000000E+08,      /* I =  1 */
(PID.TID 0000.0001)                 3.505800640000000E+08,      /* I =  2 */
(PID.TID 0000.0001)                 3.498417920000000E+08,      /* I =  3 */
(PID.TID 0000.0001)      . . .
(PID.TID 0000.0001)                 3.407688960000000E+08,      /* I = 17 */
(PID.TID 0000.0001)                 3.402016640000000E+08,      /* I = 18 */
(PID.TID 0000.0001)                 3.396440640000000E+08,      /* I = 19 */
(PID.TID 0000.0001)                 3.390958720000000E+08,      /* I = 20 */
(PID.TID 0000.0001)                 3.385569280000000E+08,      /* I = 21 */
(PID.TID 0000.0001)                 3.380270400000000E+08,      /* I = 22 */
(PID.TID 0000.0001)      . . .
(PID.TID 0000.0001)                 3.314633600000000E+08,      /* I = 36 */
(PID.TID 0000.0001)                 3.310493120000000E+08,      /* I = 37 */
(PID.TID 0000.0001)                 3.306418240000000E+08,      /* I = 38 */
(PID.TID 0000.0001)                 3.302407360000000E+08,      /* I = 39 */
(PID.TID 0000.0001)                 3.298459520000000E+08,      /* I = 40 */
(PID.TID 0000.0001)                 3.294573440000000E+08,      /* I = 41 */
(PID.TID 0000.0001)      . . .
(PID.TID 0000.0001)                 3.246019520000000E+08,      /* I = 55 */
(PID.TID 0000.0001)                 3.242928640000000E+08,      /* I = 56 */
(PID.TID 0000.0001)                 3.239883200000000E+08,      /* I = 57 */
(PID.TID 0000.0001)                 3.236882560000000E+08,      /* I = 58 */
(PID.TID 0000.0001)                 3.233925440000000E+08,      /* I = 59 */
(PID.TID 0000.0001)                 3.231011520000000E+08,      /* I = 60 */
(PID.TID 0000.0001)      . . .
(PID.TID 0000.0001)                 3.194325440000000E+08,      /* I = 74 */
(PID.TID 0000.0001)                 3.191972480000000E+08,      /* I = 75 */
(PID.TID 0000.0001)                 3.189652160000000E+08       /* I = 76 */
(PID.TID 0000.0001)     ;
(PID.TID 0000.0001) rA  =  /* rA (1,:,1,:) ( units: m^2 ) */
(PID.TID 0000.0001)                 3.513317440000000E+08,      /* J =  1 */
(PID.TID 0000.0001)                 3.515924160000000E+08,      /* J =  2 */
(PID.TID 0000.0001)                 3.518488960000000E+08,      /* J =  3 */
(PID.TID 0000.0001)      . . .
(PID.TID 0000.0001)                 3.548235520000000E+08,      /* J = 16 */
(PID.TID 0000.0001)                 3.550262720000000E+08,      /* J = 17 */
(PID.TID 0000.0001)                 3.552255040000000E+08,      /* J = 18 */
(PID.TID 0000.0001)                 3.554212800000000E+08,      /* J = 19 */
(PID.TID 0000.0001)                 3.556136000000000E+08,      /* J = 20 */
(PID.TID 0000.0001)                 3.558025280000000E+08,      /* J = 21 */
(PID.TID 0000.0001)      . . .
(PID.TID 0000.0001)                 3.579663040000000E+08,      /* J = 34 */
(PID.TID 0000.0001)                 3.581114560000000E+08,      /* J = 35 */
(PID.TID 0000.0001)                 3.582536960000000E+08,      /* J = 36 */
(PID.TID 0000.0001)                 3.583930880000000E+08,      /* J = 37 */
(PID.TID 0000.0001)                 3.585296640000000E+08,      /* J = 38 */
(PID.TID 0000.0001)                 3.586634240000000E+08,      /* J = 39 */
(PID.TID 0000.0001)      . . .
(PID.TID 0000.0001)                 3.601592960000000E+08,      /* J = 52 */
(PID.TID 0000.0001)                 3.602565120000000E+08,      /* J = 53 */
(PID.TID 0000.0001)                 3.603512640000000E+08,      /* J = 54 */
(PID.TID 0000.0001)                 3.604435840000000E+08,      /* J = 55 */
(PID.TID 0000.0001)                 3.605335360000000E+08,      /* J = 56 */
(PID.TID 0000.0001)                 3.606210560000000E+08,      /* J = 57 */
(PID.TID 0000.0001)      . . .
(PID.TID 0000.0001)                 3.615495680000000E+08,      /* J = 70 */
(PID.TID 0000.0001)                 3.616054080000000E+08,      /* J = 71 */
(PID.TID 0000.0001)                 3.616590720000000E+08       /* J = 72 */
(PID.TID 0000.0001)     ;
(PID.TID 0000.0001) rAw =  /* rAw(:,1,:,1) ( units: m^2 ) */
(PID.TID 0000.0001)                 3.517127040000000E+08,      /* I =  1 */
(PID.TID 0000.0001)                 3.509542080000000E+08,      /* I =  2 */
(PID.TID 0000.0001)                 3.502092800000000E+08,      /* I =  3 */
(PID.TID 0000.0001)      . . .
(PID.TID 0000.0001)                 3.410561920000000E+08,      /* I = 17 */
(PID.TID 0000.0001)                 3.404840640000000E+08,      /* I = 18 */
(PID.TID 0000.0001)                 3.399216640000000E+08,      /* I = 19 */
(PID.TID 0000.0001)                 3.393688000000000E+08,      /* I = 20 */
(PID.TID 0000.0001)                 3.388252480000000E+08,      /* I = 21 */
(PID.TID 0000.0001)                 3.382908800000000E+08,      /* I = 22 */
(PID.TID 0000.0001)      . . .
(PID.TID 0000.0001)                 3.316728640000000E+08,      /* I = 36 */
(PID.TID 0000.0001)                 3.312554880000000E+08,      /* I = 37 */
(PID.TID 0000.0001)                 3.308447360000000E+08,      /* I = 38 */
(PID.TID 0000.0001)                 3.304404800000000E+08,      /* I = 39 */
(PID.TID 0000.0001)                 3.300425600000000E+08,      /* I = 40 */
(PID.TID 0000.0001)                 3.296508800000000E+08,      /* I = 41 */
(PID.TID 0000.0001)      . . .
(PID.TID 0000.0001)                 3.247582080000000E+08,      /* I = 55 */
(PID.TID 0000.0001)                 3.244468160000000E+08,      /* I = 56 */
(PID.TID 0000.0001)                 3.241400320000000E+08,      /* I = 57 */
(PID.TID 0000.0001)                 3.238377280000000E+08,      /* I = 58 */
(PID.TID 0000.0001)                 3.235398720000000E+08,      /* I = 59 */
(PID.TID 0000.0001)                 3.232463360000000E+08,      /* I = 60 */
(PID.TID 0000.0001)      . . .
(PID.TID 0000.0001)                 3.195514240000000E+08,      /* I = 74 */
(PID.TID 0000.0001)                 3.193144960000000E+08,      /* I = 75 */
(PID.TID 0000.0001)                 3.190808320000000E+08       /* I = 76 */
(PID.TID 0000.0001)     ;
(PID.TID 0000.0001) rAw =  /* rAw(1,:,1,:) ( units: m^2 ) */
(PID.TID 0000.0001)                 3.517127040000000E+08,      /* J =  1 */
(PID.TID 0000.0001)                 3.519755520000000E+08,      /* J =  2 */
(PID.TID 0000.0001)                 3.522342080000000E+08,      /* J =  3 */
(PID.TID 0000.0001)      . . .
(PID.TID 0000.0001)                 3.552337600000000E+08,      /* J = 16 */
(PID.TID 0000.0001)                 3.554381760000000E+08,      /* J = 17 */
(PID.TID 0000.0001)                 3.556390720000000E+08,      /* J = 18 */
(PID.TID 0000.0001)                 3.558364480000000E+08,      /* J = 19 */
(PID.TID 0000.0001)                 3.560303680000000E+08,      /* J = 20 */
(PID.TID 0000.0001)                 3.562208640000000E+08,      /* J = 21 */
(PID.TID 0000.0001)      . . .
(PID.TID 0000.0001)                 3.584025600000000E+08,      /* J = 34 */
(PID.TID 0000.0001)                 3.585488960000000E+08,      /* J = 35 */
(PID.TID 0000.0001)                 3.586923200000000E+08,      /* J = 36 */
(PID.TID 0000.0001)                 3.588328640000000E+08,      /* J = 37 */
(PID.TID 0000.0001)                 3.589705600000000E+08,      /* J = 38 */
(PID.TID 0000.0001)                 3.591054400000000E+08,      /* J = 39 */
(PID.TID 0000.0001)      . . .
(PID.TID 0000.0001)                 3.606136320000000E+08,      /* J = 52 */
(PID.TID 0000.0001)                 3.607116480000000E+08,      /* J = 53 */
(PID.TID 0000.0001)                 3.608071680000000E+08,      /* J = 54 */
(PID.TID 0000.0001)                 3.609002880000000E+08,      /* J = 55 */
(PID.TID 0000.0001)                 3.609909440000000E+08,      /* J = 56 */
(PID.TID 0000.0001)                 3.610792000000000E+08,      /* J = 57 */
(PID.TID 0000.0001)      . . .
(PID.TID 0000.0001)                 3.620153600000000E+08,      /* J = 70 */
(PID.TID 0000.0001)                 3.620716480000000E+08,      /* J = 71 */
(PID.TID 0000.0001)                 3.621257600000000E+08       /* J = 72 */
(PID.TID 0000.0001)     ;
(PID.TID 0000.0001) rAs =  /* rAs(:,1,:,1) ( units: m^2 ) */
(PID.TID 0000.0001)                 3.511998080000000E+08,      /* I =  1 */
(PID.TID 0000.0001)                 3.504503680000000E+08,      /* I =  2 */
(PID.TID 0000.0001)                 3.497143360000000E+08,      /* I =  3 */
(PID.TID 0000.0001)      . . .
(PID.TID 0000.0001)                 3.406729280000000E+08,      /* I = 17 */
(PID.TID 0000.0001)                 3.401079040000000E+08,      /* I = 18 */
(PID.TID 0000.0001)                 3.395525120000000E+08,      /* I = 19 */
(PID.TID 0000.0001)                 3.390065600000000E+08,      /* I = 20 */
(PID.TID 0000.0001)                 3.384698240000000E+08,      /* I = 21 */
(PID.TID 0000.0001)                 3.379421760000000E+08,      /* I = 22 */
(PID.TID 0000.0001)      . . .
(PID.TID 0000.0001)                 3.314083520000000E+08,      /* I = 36 */
(PID.TID 0000.0001)                 3.309963520000000E+08,      /* I = 37 */
(PID.TID 0000.0001)                 3.305908800000000E+08,      /* I = 38 */
(PID.TID 0000.0001)                 3.301918400000000E+08,      /* I = 39 */
(PID.TID 0000.0001)                 3.297990720000000E+08,      /* I = 40 */
(PID.TID 0000.0001)                 3.294124480000000E+08,      /* I = 41 */
(PID.TID 0000.0001)      . . .
(PID.TID 0000.0001)                 3.245835840000000E+08,      /* I = 55 */
(PID.TID 0000.0001)                 3.242762880000000E+08,      /* I = 56 */
(PID.TID 0000.0001)                 3.239735040000000E+08,      /* I = 57 */
(PID.TID 0000.0001)                 3.236752000000000E+08,      /* I = 58 */
(PID.TID 0000.0001)                 3.233812160000000E+08,      /* I = 59 */
(PID.TID 0000.0001)                 3.230915520000000E+08,      /* I = 60 */
(PID.TID 0000.0001)      . . .
(PID.TID 0000.0001)                 3.194454400000000E+08,      /* I = 74 */
(PID.TID 0000.0001)                 3.192116480000000E+08,      /* I = 75 */
(PID.TID 0000.0001)                 3.189810880000000E+08       /* I = 76 */
(PID.TID 0000.0001)     ;
(PID.TID 0000.0001) rAs =  /* rAs(1,:,1,:) ( units: m^2 ) */
(PID.TID 0000.0001)                 3.511998080000000E+08,      /* J =  1 */
(PID.TID 0000.0001)                 3.514625920000000E+08,      /* J =  2 */
(PID.TID 0000.0001)                 3.517211840000000E+08,      /* J =  3 */
(PID.TID 0000.0001)      . . .
(PID.TID 0000.0001)                 3.547208320000000E+08,      /* J = 16 */
(PID.TID 0000.0001)                 3.549253440000000E+08,      /* J = 17 */
(PID.TID 0000.0001)                 3.551263360000000E+08,      /* J = 18 */
(PID.TID 0000.0001)                 3.553238400000000E+08,      /* J = 19 */
(PID.TID 0000.0001)                 3.555178560000000E+08,      /* J = 20 */
(PID.TID 0000.0001)                 3.557084800000000E+08,      /* J = 21 */
(PID.TID 0000.0001)      . . .
(PID.TID 0000.0001)                 3.578926400000000E+08,      /* J = 34 */
(PID.TID 0000.0001)                 3.580392320000000E+08,      /* J = 35 */
(PID.TID 0000.0001)                 3.581829440000000E+08,      /* J = 36 */
(PID.TID 0000.0001)                 3.583237440000000E+08,      /* J = 37 */
(PID.TID 0000.0001)                 3.584617280000000E+08,      /* J = 38 */
(PID.TID 0000.0001)                 3.585968960000000E+08,      /* J = 39 */
(PID.TID 0000.0001)      . . .
(PID.TID 0000.0001)                 3.601097920000000E+08,      /* J = 52 */
(PID.TID 0000.0001)                 3.602082240000000E+08,      /* J = 53 */
(PID.TID 0000.0001)                 3.603041920000000E+08,      /* J = 54 */
(PID.TID 0000.0001)                 3.603977280000000E+08,      /* J = 55 */
(PID.TID 0000.0001)                 3.604888640000000E+08,      /* J = 56 */
(PID.TID 0000.0001)                 3.605776000000000E+08,      /* J = 57 */
(PID.TID 0000.0001)      . . .
(PID.TID 0000.0001)                 3.615208640000000E+08,      /* J = 70 */
(PID.TID 0000.0001)                 3.615777600000000E+08,      /* J = 71 */
(PID.TID 0000.0001)                 3.616325120000000E+08       /* J = 72 */
(PID.TID 0000.0001)     ;
(PID.TID 0000.0001) globalArea = /* Integrated horizontal Area (m^2) */
(PID.TID 0000.0001)                 4.766958834880000E+11
(PID.TID 0000.0001)     ;
(PID.TID 0000.0001) // =======================================================
(PID.TID 0000.0001) // End of Model config. summary
(PID.TID 0000.0001) // =======================================================
(PID.TID 0000.0001) 
(PID.TID 0000.0001) == Packages configuration : Check & print summary ==
(PID.TID 0000.0001) 
(PID.TID 0000.0001) KPP_CHECK: #define ALLOW_KPP
(PID.TID 0000.0001) OBCS_CHECK: #define ALLOW_OBCS
(PID.TID 0000.0001) OBCS_CHECK: start summary:
(PID.TID 0000.0001) useOBCSprescribe = /* prescribe OB values */
(PID.TID 0000.0001)                   T
(PID.TID 0000.0001)     ;
(PID.TID 0000.0001) useOBCSbalance = /* balance the flow through OB */
(PID.TID 0000.0001)                   F
(PID.TID 0000.0001)     ;
(PID.TID 0000.0001) OBCS_uvApplyFac = /* Factor to apply to U,V 2nd column/row */
(PID.TID 0000.0001)                 1.000000000000000E+00
(PID.TID 0000.0001)     ;
(PID.TID 0000.0001) OBCS_u1_adv_T = /* Temp uses upwind adv-scheme @ OB */
(PID.TID 0000.0001)                       0
(PID.TID 0000.0001)     ;
(PID.TID 0000.0001) OBCS_u1_adv_S = /* Salt uses upwind adv-scheme @ OB */
(PID.TID 0000.0001)                       0
(PID.TID 0000.0001)     ;
(PID.TID 0000.0001) OBCS_monitorFreq = /* monitor output frequency [s] */
(PID.TID 0000.0001)                 1.200000000000000E+03
(PID.TID 0000.0001)     ;
(PID.TID 0000.0001) OBCS_monSelect = /* select group of variables to monitor */
(PID.TID 0000.0001)                       0
(PID.TID 0000.0001)     ;
(PID.TID 0000.0001) useOBCStides = /* apply tidal forcing through OB */
(PID.TID 0000.0001)                   F
(PID.TID 0000.0001)     ;
(PID.TID 0000.0001) tidalPeriod = /* (s) */
(PID.TID 0000.0001)    10 @  0.000000000000000E+00              /* I =  1: 10 */
(PID.TID 0000.0001)     ;
(PID.TID 0000.0001) OB_indexNone = /* null value for OB index (i.e. no OB) */
(PID.TID 0000.0001)                     -99
(PID.TID 0000.0001)     ;
(PID.TID 0000.0001) ======== Tile bi=   1 , bj=   1 ========
(PID.TID 0000.0001)  OB_Jn = /* Northern OB local indices */
(PID.TID 0000.0001)    46 @      -99                            /* I = -3: 42 */
(PID.TID 0000.0001)  OB_Js = /* Southern OB local indices */
(PID.TID 0000.0001)    46 @      -99                            /* I = -3: 42 */
(PID.TID 0000.0001)  OB_Ie = /* Eastern OB local indices */
(PID.TID 0000.0001)    44 @      -99                            /* J = -3: 40 */
(PID.TID 0000.0001)  OB_Iw = /* Western OB local indices */
(PID.TID 0000.0001)    44 @        1                            /* J = -3: 40 */
(PID.TID 0000.0001) ======== Tile bi=   2 , bj=   1 ========
(PID.TID 0000.0001)  OB_Jn = /* Northern OB local indices */
(PID.TID 0000.0001)    46 @      -99                            /* I = -3: 42 */
(PID.TID 0000.0001)  OB_Js = /* Southern OB local indices */
(PID.TID 0000.0001)    46 @      -99                            /* I = -3: 42 */
(PID.TID 0000.0001)  OB_Ie = /* Eastern OB local indices */
(PID.TID 0000.0001)    44 @      -99                            /* J = -3: 40 */
(PID.TID 0000.0001)  OB_Iw = /* Western OB local indices */
(PID.TID 0000.0001)    44 @      -99                            /* J = -3: 40 */
(PID.TID 0000.0001) ======== Tile bi=   1 , bj=   2 ========
(PID.TID 0000.0001)  OB_Jn = /* Northern OB local indices */
(PID.TID 0000.0001)    46 @       36                            /* I = -3: 42 */
(PID.TID 0000.0001)  OB_Js = /* Southern OB local indices */
(PID.TID 0000.0001)    46 @      -99                            /* I = -3: 42 */
(PID.TID 0000.0001)  OB_Ie = /* Eastern OB local indices */
(PID.TID 0000.0001)    44 @      -99                            /* J = -3: 40 */
(PID.TID 0000.0001)  OB_Iw = /* Western OB local indices */
(PID.TID 0000.0001)    44 @        1                            /* J = -3: 40 */
(PID.TID 0000.0001) ======== Tile bi=   2 , bj=   2 ========
(PID.TID 0000.0001)  OB_Jn = /* Northern OB local indices */
(PID.TID 0000.0001)    46 @       36                            /* I = -3: 42 */
(PID.TID 0000.0001)  OB_Js = /* Southern OB local indices */
(PID.TID 0000.0001)    46 @      -99                            /* I = -3: 42 */
(PID.TID 0000.0001)  OB_Ie = /* Eastern OB local indices */
(PID.TID 0000.0001)    44 @      -99                            /* J = -3: 40 */
(PID.TID 0000.0001)  OB_Iw = /* Western OB local indices */
(PID.TID 0000.0001)    44 @      -99                            /* J = -3: 40 */
(PID.TID 0000.0001) OBCS_CHECK: end summary.
(PID.TID 0000.0001) OBCS_CHECK: set-up OK
(PID.TID 0000.0001) OBCS_CHECK: check Inside Mask and OB locations: OK
(PID.TID 0000.0001) PTRACERS_CHECK: #define ALLOW_PTRACERS
(PID.TID 0000.0001) PTRACERS_CHECK: updated GAD_OlMinSize=  4  0  1
(PID.TID 0000.0001) // ===================================
(PID.TID 0000.0001) // PTRACERS parameters
(PID.TID 0000.0001) // ===================================
(PID.TID 0000.0001) PTRACERS_numInUse = /* number of tracers */
(PID.TID 0000.0001)                      99
(PID.TID 0000.0001)     ;
(PID.TID 0000.0001) PTRACERS_Iter0 = /* timestep number when tracers are initialized */
(PID.TID 0000.0001)                   26352
(PID.TID 0000.0001)     ;
(PID.TID 0000.0001) PTRACERS_startAllTrc =/* all tracers start @ startTime */
(PID.TID 0000.0001)                   T
(PID.TID 0000.0001)     ;
(PID.TID 0000.0001) PTRACERS_addSrelax2EmP =/* add Salt relaxation to EmP */
(PID.TID 0000.0001)                   F
(PID.TID 0000.0001)     ;
(PID.TID 0000.0001) PTRACERS_dTLev =   /* Ptracer timestep ( s ) */
(PID.TID 0000.0001)    24 @  1.200000000000000E+03              /* K =  1: 24 */
(PID.TID 0000.0001)     ;
(PID.TID 0000.0001) PTRACERS_dumpFreq = /* Frequency^-1 for snapshot output (s) */
(PID.TID 0000.0001)                 0.000000000000000E+00
(PID.TID 0000.0001)     ;
(PID.TID 0000.0001) PTRACERS_taveFreq = /* Frequency^-1 for time-Aver. output (s) */
(PID.TID 0000.0001)                 0.000000000000000E+00
(PID.TID 0000.0001)     ;
(PID.TID 0000.0001) PTRACERS_useRecords = /* all tracers in 1 file */
(PID.TID 0000.0001)                   F
(PID.TID 0000.0001)     ;
(PID.TID 0000.0001) PTRACERS_timeave_mnc = /* use MNC for Tave output */
(PID.TID 0000.0001)                   F
(PID.TID 0000.0001)     ;
(PID.TID 0000.0001) PTRACERS_snapshot_mnc = /* use MNC for snapshot output */
(PID.TID 0000.0001)                   F
(PID.TID 0000.0001)     ;
(PID.TID 0000.0001) PTRACERS_pickup_write_mnc = /* use MNC for writing pickups */
(PID.TID 0000.0001)                   F
(PID.TID 0000.0001)     ;
(PID.TID 0000.0001) PTRACERS_pickup_read_mnc = /* use MNC for reading pickups */
(PID.TID 0000.0001)                   F
(PID.TID 0000.0001)     ;
(PID.TID 0000.0001)  -----------------------------------
(PID.TID 0000.0001)  tracer number :    1
(PID.TID 0000.0001) PTRACERS_names = /* Tracer short name */
(PID.TID 0000.0001)               'PO4'
(PID.TID 0000.0001)     ;
(PID.TID 0000.0001) PTRACERS_long_names = /* Tracer long name */
(PID.TID 0000.0001)               ''
(PID.TID 0000.0001)     ;
(PID.TID 0000.0001) PTRACERS_ioLabel = /* tracer IO Label */
(PID.TID 0000.0001)               '01'
(PID.TID 0000.0001)     ;
(PID.TID 0000.0001) PTRACERS_advScheme = /* Advection Scheme */
(PID.TID 0000.0001)                      33
(PID.TID 0000.0001)     ;
(PID.TID 0000.0001) PTRACERS_SOM_Advection = /* tracer uses SOM advection scheme */
(PID.TID 0000.0001)                   F
(PID.TID 0000.0001)     ;
(PID.TID 0000.0001) PTRACERS_ImplVertAdv = /* implicit vert. advection flag */
(PID.TID 0000.0001)                   F
(PID.TID 0000.0001)     ;
(PID.TID 0000.0001) PTRACERS_diffKh = /* Laplacian Diffusivity */
(PID.TID 0000.0001)                 0.000000000000000E+00
(PID.TID 0000.0001)     ;
(PID.TID 0000.0001) PTRACERS_diffK4 = /* Biharmonic Diffusivity */
(PID.TID 0000.0001)                 0.000000000000000E+00
(PID.TID 0000.0001)     ;
(PID.TID 0000.0001) PTRACERS_diffKrNr = /* Vertical Diffusivity */
(PID.TID 0000.0001)    24 @  1.000000000000000E-06              /* K =  1: 24 */
(PID.TID 0000.0001)     ;
(PID.TID 0000.0001) PTRACERS_useGMRedi = /* apply GM-Redi */
(PID.TID 0000.0001)                   F
(PID.TID 0000.0001)     ;
(PID.TID 0000.0001) PTRACERS_useDWNSLP = /* apply DOWN-SLOPE Flow */
(PID.TID 0000.0001)                   F
(PID.TID 0000.0001)     ;
(PID.TID 0000.0001) PTRACERS_useKPP = /* apply KPP scheme */
(PID.TID 0000.0001)                   T
(PID.TID 0000.0001)     ;
(PID.TID 0000.0001) PTRACERS_ref = /* Reference vertical profile */
(PID.TID 0000.0001)    24 @  0.000000000000000E+00              /* K =  1: 24 */
(PID.TID 0000.0001)     ;
(PID.TID 0000.0001) PTRACERS_EvPrRn =/* tracer conc. in Evap. & Rain */
(PID.TID 0000.0001)                 1.234567000000000E+05
(PID.TID 0000.0001)     ;
(PID.TID 0000.0001)  -----------------------------------
(PID.TID 0000.0001)  tracer number :    2
(PID.TID 0000.0001) PTRACERS_names = /* Tracer short name */
(PID.TID 0000.0001)               'NO3'
(PID.TID 0000.0001)     ;
(PID.TID 0000.0001) PTRACERS_long_names = /* Tracer long name */
(PID.TID 0000.0001)               ''
(PID.TID 0000.0001)     ;
(PID.TID 0000.0001) PTRACERS_ioLabel = /* tracer IO Label */
(PID.TID 0000.0001)               '02'
(PID.TID 0000.0001)     ;
(PID.TID 0000.0001) PTRACERS_advScheme = /* Advection Scheme */
(PID.TID 0000.0001)                      33
(PID.TID 0000.0001)     ;
(PID.TID 0000.0001) PTRACERS_SOM_Advection = /* tracer uses SOM advection scheme */
(PID.TID 0000.0001)                   F
(PID.TID 0000.0001)     ;
(PID.TID 0000.0001) PTRACERS_ImplVertAdv = /* implicit vert. advection flag */
(PID.TID 0000.0001)                   F
(PID.TID 0000.0001)     ;
(PID.TID 0000.0001) PTRACERS_diffKh = /* Laplacian Diffusivity */
(PID.TID 0000.0001)                 0.000000000000000E+00
(PID.TID 0000.0001)     ;
(PID.TID 0000.0001) PTRACERS_diffK4 = /* Biharmonic Diffusivity */
(PID.TID 0000.0001)                 0.000000000000000E+00
(PID.TID 0000.0001)     ;
(PID.TID 0000.0001) PTRACERS_diffKrNr = /* Vertical Diffusivity */
(PID.TID 0000.0001)    24 @  1.000000000000000E-06              /* K =  1: 24 */
(PID.TID 0000.0001)     ;
(PID.TID 0000.0001) PTRACERS_useGMRedi = /* apply GM-Redi */
(PID.TID 0000.0001)                   F
(PID.TID 0000.0001)     ;
(PID.TID 0000.0001) PTRACERS_useDWNSLP = /* apply DOWN-SLOPE Flow */
(PID.TID 0000.0001)                   F
(PID.TID 0000.0001)     ;
(PID.TID 0000.0001) PTRACERS_useKPP = /* apply KPP scheme */
(PID.TID 0000.0001)                   T
(PID.TID 0000.0001)     ;
(PID.TID 0000.0001) PTRACERS_ref = /* Reference vertical profile */
(PID.TID 0000.0001)    24 @  0.000000000000000E+00              /* K =  1: 24 */
(PID.TID 0000.0001)     ;
(PID.TID 0000.0001) PTRACERS_EvPrRn =/* tracer conc. in Evap. & Rain */
(PID.TID 0000.0001)                 1.234567000000000E+05
(PID.TID 0000.0001)     ;
(PID.TID 0000.0001)  -----------------------------------
(PID.TID 0000.0001)  tracer number :    3
(PID.TID 0000.0001) PTRACERS_names = /* Tracer short name */
(PID.TID 0000.0001)               'FeT'
(PID.TID 0000.0001)     ;
(PID.TID 0000.0001) PTRACERS_long_names = /* Tracer long name */
(PID.TID 0000.0001)               ''
(PID.TID 0000.0001)     ;
(PID.TID 0000.0001) PTRACERS_ioLabel = /* tracer IO Label */
(PID.TID 0000.0001)               '03'
(PID.TID 0000.0001)     ;
(PID.TID 0000.0001) PTRACERS_advScheme = /* Advection Scheme */
(PID.TID 0000.0001)                      33
(PID.TID 0000.0001)     ;
(PID.TID 0000.0001) PTRACERS_SOM_Advection = /* tracer uses SOM advection scheme */
(PID.TID 0000.0001)                   F
(PID.TID 0000.0001)     ;
(PID.TID 0000.0001) PTRACERS_ImplVertAdv = /* implicit vert. advection flag */
(PID.TID 0000.0001)                   F
(PID.TID 0000.0001)     ;
(PID.TID 0000.0001) PTRACERS_diffKh = /* Laplacian Diffusivity */
(PID.TID 0000.0001)                 0.000000000000000E+00
(PID.TID 0000.0001)     ;
(PID.TID 0000.0001) PTRACERS_diffK4 = /* Biharmonic Diffusivity */
(PID.TID 0000.0001)                 0.000000000000000E+00
(PID.TID 0000.0001)     ;
(PID.TID 0000.0001) PTRACERS_diffKrNr = /* Vertical Diffusivity */
(PID.TID 0000.0001)    24 @  1.000000000000000E-06              /* K =  1: 24 */
(PID.TID 0000.0001)     ;
(PID.TID 0000.0001) PTRACERS_useGMRedi = /* apply GM-Redi */
(PID.TID 0000.0001)                   F
(PID.TID 0000.0001)     ;
(PID.TID 0000.0001) PTRACERS_useDWNSLP = /* apply DOWN-SLOPE Flow */
(PID.TID 0000.0001)                   F
(PID.TID 0000.0001)     ;
(PID.TID 0000.0001) PTRACERS_useKPP = /* apply KPP scheme */
(PID.TID 0000.0001)                   T
(PID.TID 0000.0001)     ;
(PID.TID 0000.0001) PTRACERS_ref = /* Reference vertical profile */
(PID.TID 0000.0001)    24 @  0.000000000000000E+00              /* K =  1: 24 */
(PID.TID 0000.0001)     ;
(PID.TID 0000.0001) PTRACERS_EvPrRn =/* tracer conc. in Evap. & Rain */
(PID.TID 0000.0001)                 1.234567000000000E+05
(PID.TID 0000.0001)     ;
(PID.TID 0000.0001)  -----------------------------------
(PID.TID 0000.0001)  tracer number :    4
(PID.TID 0000.0001) PTRACERS_names = /* Tracer short name */
(PID.TID 0000.0001)               'SiO2'
(PID.TID 0000.0001)     ;
(PID.TID 0000.0001) PTRACERS_long_names = /* Tracer long name */
(PID.TID 0000.0001)               ''
(PID.TID 0000.0001)     ;
(PID.TID 0000.0001) PTRACERS_ioLabel = /* tracer IO Label */
(PID.TID 0000.0001)               '04'
(PID.TID 0000.0001)     ;
(PID.TID 0000.0001) PTRACERS_advScheme = /* Advection Scheme */
(PID.TID 0000.0001)                      33
(PID.TID 0000.0001)     ;
(PID.TID 0000.0001) PTRACERS_SOM_Advection = /* tracer uses SOM advection scheme */
(PID.TID 0000.0001)                   F
(PID.TID 0000.0001)     ;
(PID.TID 0000.0001) PTRACERS_ImplVertAdv = /* implicit vert. advection flag */
(PID.TID 0000.0001)                   F
(PID.TID 0000.0001)     ;
(PID.TID 0000.0001) PTRACERS_diffKh = /* Laplacian Diffusivity */
(PID.TID 0000.0001)                 0.000000000000000E+00
(PID.TID 0000.0001)     ;
(PID.TID 0000.0001) PTRACERS_diffK4 = /* Biharmonic Diffusivity */
(PID.TID 0000.0001)                 0.000000000000000E+00
(PID.TID 0000.0001)     ;
(PID.TID 0000.0001) PTRACERS_diffKrNr = /* Vertical Diffusivity */
(PID.TID 0000.0001)    24 @  1.000000000000000E-06              /* K =  1: 24 */
(PID.TID 0000.0001)     ;
(PID.TID 0000.0001) PTRACERS_useGMRedi = /* apply GM-Redi */
(PID.TID 0000.0001)                   F
(PID.TID 0000.0001)     ;
(PID.TID 0000.0001) PTRACERS_useDWNSLP = /* apply DOWN-SLOPE Flow */
(PID.TID 0000.0001)                   F
(PID.TID 0000.0001)     ;
(PID.TID 0000.0001) PTRACERS_useKPP = /* apply KPP scheme */
(PID.TID 0000.0001)                   T
(PID.TID 0000.0001)     ;
(PID.TID 0000.0001) PTRACERS_ref = /* Reference vertical profile */
(PID.TID 0000.0001)    24 @  0.000000000000000E+00              /* K =  1: 24 */
(PID.TID 0000.0001)     ;
(PID.TID 0000.0001) PTRACERS_EvPrRn =/* tracer conc. in Evap. & Rain */
(PID.TID 0000.0001)                 1.234567000000000E+05
(PID.TID 0000.0001)     ;
(PID.TID 0000.0001)  -----------------------------------
(PID.TID 0000.0001)  tracer number :    5
(PID.TID 0000.0001) PTRACERS_names = /* Tracer short name */
(PID.TID 0000.0001)               'DOP'
(PID.TID 0000.0001)     ;
(PID.TID 0000.0001) PTRACERS_long_names = /* Tracer long name */
(PID.TID 0000.0001)               ''
(PID.TID 0000.0001)     ;
(PID.TID 0000.0001) PTRACERS_ioLabel = /* tracer IO Label */
(PID.TID 0000.0001)               '05'
(PID.TID 0000.0001)     ;
(PID.TID 0000.0001) PTRACERS_advScheme = /* Advection Scheme */
(PID.TID 0000.0001)                      33
(PID.TID 0000.0001)     ;
(PID.TID 0000.0001) PTRACERS_SOM_Advection = /* tracer uses SOM advection scheme */
(PID.TID 0000.0001)                   F
(PID.TID 0000.0001)     ;
(PID.TID 0000.0001) PTRACERS_ImplVertAdv = /* implicit vert. advection flag */
(PID.TID 0000.0001)                   F
(PID.TID 0000.0001)     ;
(PID.TID 0000.0001) PTRACERS_diffKh = /* Laplacian Diffusivity */
(PID.TID 0000.0001)                 0.000000000000000E+00
(PID.TID 0000.0001)     ;
(PID.TID 0000.0001) PTRACERS_diffK4 = /* Biharmonic Diffusivity */
(PID.TID 0000.0001)                 0.000000000000000E+00
(PID.TID 0000.0001)     ;
(PID.TID 0000.0001) PTRACERS_diffKrNr = /* Vertical Diffusivity */
(PID.TID 0000.0001)    24 @  1.000000000000000E-06              /* K =  1: 24 */
(PID.TID 0000.0001)     ;
(PID.TID 0000.0001) PTRACERS_useGMRedi = /* apply GM-Redi */
(PID.TID 0000.0001)                   F
(PID.TID 0000.0001)     ;
(PID.TID 0000.0001) PTRACERS_useDWNSLP = /* apply DOWN-SLOPE Flow */
(PID.TID 0000.0001)                   F
(PID.TID 0000.0001)     ;
(PID.TID 0000.0001) PTRACERS_useKPP = /* apply KPP scheme */
(PID.TID 0000.0001)                   T
(PID.TID 0000.0001)     ;
(PID.TID 0000.0001) PTRACERS_ref = /* Reference vertical profile */
(PID.TID 0000.0001)    24 @  0.000000000000000E+00              /* K =  1: 24 */
(PID.TID 0000.0001)     ;
(PID.TID 0000.0001) PTRACERS_EvPrRn =/* tracer conc. in Evap. & Rain */
(PID.TID 0000.0001)                 1.234567000000000E+05
(PID.TID 0000.0001)     ;
(PID.TID 0000.0001)  -----------------------------------
(PID.TID 0000.0001)  tracer number :    6
(PID.TID 0000.0001) PTRACERS_names = /* Tracer short name */
(PID.TID 0000.0001)               'DON'
(PID.TID 0000.0001)     ;
(PID.TID 0000.0001) PTRACERS_long_names = /* Tracer long name */
(PID.TID 0000.0001)               ''
(PID.TID 0000.0001)     ;
(PID.TID 0000.0001) PTRACERS_ioLabel = /* tracer IO Label */
(PID.TID 0000.0001)               '06'
(PID.TID 0000.0001)     ;
(PID.TID 0000.0001) PTRACERS_advScheme = /* Advection Scheme */
(PID.TID 0000.0001)                      33
(PID.TID 0000.0001)     ;
(PID.TID 0000.0001) PTRACERS_SOM_Advection = /* tracer uses SOM advection scheme */
(PID.TID 0000.0001)                   F
(PID.TID 0000.0001)     ;
(PID.TID 0000.0001) PTRACERS_ImplVertAdv = /* implicit vert. advection flag */
(PID.TID 0000.0001)                   F
(PID.TID 0000.0001)     ;
(PID.TID 0000.0001) PTRACERS_diffKh = /* Laplacian Diffusivity */
(PID.TID 0000.0001)                 0.000000000000000E+00
(PID.TID 0000.0001)     ;
(PID.TID 0000.0001) PTRACERS_diffK4 = /* Biharmonic Diffusivity */
(PID.TID 0000.0001)                 0.000000000000000E+00
(PID.TID 0000.0001)     ;
(PID.TID 0000.0001) PTRACERS_diffKrNr = /* Vertical Diffusivity */
(PID.TID 0000.0001)    24 @  1.000000000000000E-06              /* K =  1: 24 */
(PID.TID 0000.0001)     ;
(PID.TID 0000.0001) PTRACERS_useGMRedi = /* apply GM-Redi */
(PID.TID 0000.0001)                   F
(PID.TID 0000.0001)     ;
(PID.TID 0000.0001) PTRACERS_useDWNSLP = /* apply DOWN-SLOPE Flow */
(PID.TID 0000.0001)                   F
(PID.TID 0000.0001)     ;
(PID.TID 0000.0001) PTRACERS_useKPP = /* apply KPP scheme */
(PID.TID 0000.0001)                   T
(PID.TID 0000.0001)     ;
(PID.TID 0000.0001) PTRACERS_ref = /* Reference vertical profile */
(PID.TID 0000.0001)    24 @  0.000000000000000E+00              /* K =  1: 24 */
(PID.TID 0000.0001)     ;
(PID.TID 0000.0001) PTRACERS_EvPrRn =/* tracer conc. in Evap. & Rain */
(PID.TID 0000.0001)                 1.234567000000000E+05
(PID.TID 0000.0001)     ;
(PID.TID 0000.0001)  -----------------------------------
(PID.TID 0000.0001)  tracer number :    7
(PID.TID 0000.0001) PTRACERS_names = /* Tracer short name */
(PID.TID 0000.0001)               'DOFe'
(PID.TID 0000.0001)     ;
(PID.TID 0000.0001) PTRACERS_long_names = /* Tracer long name */
(PID.TID 0000.0001)               ''
(PID.TID 0000.0001)     ;
(PID.TID 0000.0001) PTRACERS_ioLabel = /* tracer IO Label */
(PID.TID 0000.0001)               '07'
(PID.TID 0000.0001)     ;
(PID.TID 0000.0001) PTRACERS_advScheme = /* Advection Scheme */
(PID.TID 0000.0001)                      33
(PID.TID 0000.0001)     ;
(PID.TID 0000.0001) PTRACERS_SOM_Advection = /* tracer uses SOM advection scheme */
(PID.TID 0000.0001)                   F
(PID.TID 0000.0001)     ;
(PID.TID 0000.0001) PTRACERS_ImplVertAdv = /* implicit vert. advection flag */
(PID.TID 0000.0001)                   F
(PID.TID 0000.0001)     ;
(PID.TID 0000.0001) PTRACERS_diffKh = /* Laplacian Diffusivity */
(PID.TID 0000.0001)                 0.000000000000000E+00
(PID.TID 0000.0001)     ;
(PID.TID 0000.0001) PTRACERS_diffK4 = /* Biharmonic Diffusivity */
(PID.TID 0000.0001)                 0.000000000000000E+00
(PID.TID 0000.0001)     ;
(PID.TID 0000.0001) PTRACERS_diffKrNr = /* Vertical Diffusivity */
(PID.TID 0000.0001)    24 @  1.000000000000000E-06              /* K =  1: 24 */
(PID.TID 0000.0001)     ;
(PID.TID 0000.0001) PTRACERS_useGMRedi = /* apply GM-Redi */
(PID.TID 0000.0001)                   F
(PID.TID 0000.0001)     ;
(PID.TID 0000.0001) PTRACERS_useDWNSLP = /* apply DOWN-SLOPE Flow */
(PID.TID 0000.0001)                   F
(PID.TID 0000.0001)     ;
(PID.TID 0000.0001) PTRACERS_useKPP = /* apply KPP scheme */
(PID.TID 0000.0001)                   T
(PID.TID 0000.0001)     ;
(PID.TID 0000.0001) PTRACERS_ref = /* Reference vertical profile */
(PID.TID 0000.0001)    24 @  0.000000000000000E+00              /* K =  1: 24 */
(PID.TID 0000.0001)     ;
(PID.TID 0000.0001) PTRACERS_EvPrRn =/* tracer conc. in Evap. & Rain */
(PID.TID 0000.0001)                 1.234567000000000E+05
(PID.TID 0000.0001)     ;
(PID.TID 0000.0001)  -----------------------------------
(PID.TID 0000.0001)  tracer number :    8
(PID.TID 0000.0001) PTRACERS_names = /* Tracer short name */
(PID.TID 0000.0001)               'ZOO1P'
(PID.TID 0000.0001)     ;
(PID.TID 0000.0001) PTRACERS_long_names = /* Tracer long name */
(PID.TID 0000.0001)               ''
(PID.TID 0000.0001)     ;
(PID.TID 0000.0001) PTRACERS_ioLabel = /* tracer IO Label */
(PID.TID 0000.0001)               '08'
(PID.TID 0000.0001)     ;
(PID.TID 0000.0001) PTRACERS_advScheme = /* Advection Scheme */
(PID.TID 0000.0001)                      33
(PID.TID 0000.0001)     ;
(PID.TID 0000.0001) PTRACERS_SOM_Advection = /* tracer uses SOM advection scheme */
(PID.TID 0000.0001)                   F
(PID.TID 0000.0001)     ;
(PID.TID 0000.0001) PTRACERS_ImplVertAdv = /* implicit vert. advection flag */
(PID.TID 0000.0001)                   F
(PID.TID 0000.0001)     ;
(PID.TID 0000.0001) PTRACERS_diffKh = /* Laplacian Diffusivity */
(PID.TID 0000.0001)                 0.000000000000000E+00
(PID.TID 0000.0001)     ;
(PID.TID 0000.0001) PTRACERS_diffK4 = /* Biharmonic Diffusivity */
(PID.TID 0000.0001)                 0.000000000000000E+00
(PID.TID 0000.0001)     ;
(PID.TID 0000.0001) PTRACERS_diffKrNr = /* Vertical Diffusivity */
(PID.TID 0000.0001)    24 @  1.000000000000000E-06              /* K =  1: 24 */
(PID.TID 0000.0001)     ;
(PID.TID 0000.0001) PTRACERS_useGMRedi = /* apply GM-Redi */
(PID.TID 0000.0001)                   F
(PID.TID 0000.0001)     ;
(PID.TID 0000.0001) PTRACERS_useDWNSLP = /* apply DOWN-SLOPE Flow */
(PID.TID 0000.0001)                   F
(PID.TID 0000.0001)     ;
(PID.TID 0000.0001) PTRACERS_useKPP = /* apply KPP scheme */
(PID.TID 0000.0001)                   T
(PID.TID 0000.0001)     ;
(PID.TID 0000.0001) PTRACERS_ref = /* Reference vertical profile */
(PID.TID 0000.0001)    24 @  0.000000000000000E+00              /* K =  1: 24 */
(PID.TID 0000.0001)     ;
(PID.TID 0000.0001) PTRACERS_EvPrRn =/* tracer conc. in Evap. & Rain */
(PID.TID 0000.0001)                 1.234567000000000E+05
(PID.TID 0000.0001)     ;
(PID.TID 0000.0001)  -----------------------------------
(PID.TID 0000.0001)  tracer number :    9
(PID.TID 0000.0001) PTRACERS_names = /* Tracer short name */
(PID.TID 0000.0001)               'ZOO1N'
(PID.TID 0000.0001)     ;
(PID.TID 0000.0001) PTRACERS_long_names = /* Tracer long name */
(PID.TID 0000.0001)               ''
(PID.TID 0000.0001)     ;
(PID.TID 0000.0001) PTRACERS_ioLabel = /* tracer IO Label */
(PID.TID 0000.0001)               '09'
(PID.TID 0000.0001)     ;
(PID.TID 0000.0001) PTRACERS_advScheme = /* Advection Scheme */
(PID.TID 0000.0001)                      33
(PID.TID 0000.0001)     ;
(PID.TID 0000.0001) PTRACERS_SOM_Advection = /* tracer uses SOM advection scheme */
(PID.TID 0000.0001)                   F
(PID.TID 0000.0001)     ;
(PID.TID 0000.0001) PTRACERS_ImplVertAdv = /* implicit vert. advection flag */
(PID.TID 0000.0001)                   F
(PID.TID 0000.0001)     ;
(PID.TID 0000.0001) PTRACERS_diffKh = /* Laplacian Diffusivity */
(PID.TID 0000.0001)                 0.000000000000000E+00
(PID.TID 0000.0001)     ;
(PID.TID 0000.0001) PTRACERS_diffK4 = /* Biharmonic Diffusivity */
(PID.TID 0000.0001)                 0.000000000000000E+00
(PID.TID 0000.0001)     ;
(PID.TID 0000.0001) PTRACERS_diffKrNr = /* Vertical Diffusivity */
(PID.TID 0000.0001)    24 @  1.000000000000000E-06              /* K =  1: 24 */
(PID.TID 0000.0001)     ;
(PID.TID 0000.0001) PTRACERS_useGMRedi = /* apply GM-Redi */
(PID.TID 0000.0001)                   F
(PID.TID 0000.0001)     ;
(PID.TID 0000.0001) PTRACERS_useDWNSLP = /* apply DOWN-SLOPE Flow */
(PID.TID 0000.0001)                   F
(PID.TID 0000.0001)     ;
(PID.TID 0000.0001) PTRACERS_useKPP = /* apply KPP scheme */
(PID.TID 0000.0001)                   T
(PID.TID 0000.0001)     ;
(PID.TID 0000.0001) PTRACERS_ref = /* Reference vertical profile */
(PID.TID 0000.0001)    24 @  0.000000000000000E+00              /* K =  1: 24 */
(PID.TID 0000.0001)     ;
(PID.TID 0000.0001) PTRACERS_EvPrRn =/* tracer conc. in Evap. & Rain */
(PID.TID 0000.0001)                 1.234567000000000E+05
(PID.TID 0000.0001)     ;
(PID.TID 0000.0001)  -----------------------------------
(PID.TID 0000.0001)  tracer number :   10
(PID.TID 0000.0001) PTRACERS_names = /* Tracer short name */
(PID.TID 0000.0001)               'ZOO1Fe'
(PID.TID 0000.0001)     ;
(PID.TID 0000.0001) PTRACERS_long_names = /* Tracer long name */
(PID.TID 0000.0001)               ''
(PID.TID 0000.0001)     ;
(PID.TID 0000.0001) PTRACERS_ioLabel = /* tracer IO Label */
(PID.TID 0000.0001)               '10'
(PID.TID 0000.0001)     ;
(PID.TID 0000.0001) PTRACERS_advScheme = /* Advection Scheme */
(PID.TID 0000.0001)                      33
(PID.TID 0000.0001)     ;
(PID.TID 0000.0001) PTRACERS_SOM_Advection = /* tracer uses SOM advection scheme */
(PID.TID 0000.0001)                   F
(PID.TID 0000.0001)     ;
(PID.TID 0000.0001) PTRACERS_ImplVertAdv = /* implicit vert. advection flag */
(PID.TID 0000.0001)                   F
(PID.TID 0000.0001)     ;
(PID.TID 0000.0001) PTRACERS_diffKh = /* Laplacian Diffusivity */
(PID.TID 0000.0001)                 0.000000000000000E+00
(PID.TID 0000.0001)     ;
(PID.TID 0000.0001) PTRACERS_diffK4 = /* Biharmonic Diffusivity */
(PID.TID 0000.0001)                 0.000000000000000E+00
(PID.TID 0000.0001)     ;
(PID.TID 0000.0001) PTRACERS_diffKrNr = /* Vertical Diffusivity */
(PID.TID 0000.0001)    24 @  1.000000000000000E-06              /* K =  1: 24 */
(PID.TID 0000.0001)     ;
(PID.TID 0000.0001) PTRACERS_useGMRedi = /* apply GM-Redi */
(PID.TID 0000.0001)                   F
(PID.TID 0000.0001)     ;
(PID.TID 0000.0001) PTRACERS_useDWNSLP = /* apply DOWN-SLOPE Flow */
(PID.TID 0000.0001)                   F
(PID.TID 0000.0001)     ;
(PID.TID 0000.0001) PTRACERS_useKPP = /* apply KPP scheme */
(PID.TID 0000.0001)                   T
(PID.TID 0000.0001)     ;
(PID.TID 0000.0001) PTRACERS_ref = /* Reference vertical profile */
(PID.TID 0000.0001)    24 @  0.000000000000000E+00              /* K =  1: 24 */
(PID.TID 0000.0001)     ;
(PID.TID 0000.0001) PTRACERS_EvPrRn =/* tracer conc. in Evap. & Rain */
(PID.TID 0000.0001)                 1.234567000000000E+05
(PID.TID 0000.0001)     ;
(PID.TID 0000.0001)  -----------------------------------
(PID.TID 0000.0001)  tracer number :   11
(PID.TID 0000.0001) PTRACERS_names = /* Tracer short name */
(PID.TID 0000.0001)               'ZOO1Si'
(PID.TID 0000.0001)     ;
(PID.TID 0000.0001) PTRACERS_long_names = /* Tracer long name */
(PID.TID 0000.0001)               ''
(PID.TID 0000.0001)     ;
(PID.TID 0000.0001) PTRACERS_ioLabel = /* tracer IO Label */
(PID.TID 0000.0001)               '11'
(PID.TID 0000.0001)     ;
(PID.TID 0000.0001) PTRACERS_advScheme = /* Advection Scheme */
(PID.TID 0000.0001)                      33
(PID.TID 0000.0001)     ;
(PID.TID 0000.0001) PTRACERS_SOM_Advection = /* tracer uses SOM advection scheme */
(PID.TID 0000.0001)                   F
(PID.TID 0000.0001)     ;
(PID.TID 0000.0001) PTRACERS_ImplVertAdv = /* implicit vert. advection flag */
(PID.TID 0000.0001)                   F
(PID.TID 0000.0001)     ;
(PID.TID 0000.0001) PTRACERS_diffKh = /* Laplacian Diffusivity */
(PID.TID 0000.0001)                 0.000000000000000E+00
(PID.TID 0000.0001)     ;
(PID.TID 0000.0001) PTRACERS_diffK4 = /* Biharmonic Diffusivity */
(PID.TID 0000.0001)                 0.000000000000000E+00
(PID.TID 0000.0001)     ;
(PID.TID 0000.0001) PTRACERS_diffKrNr = /* Vertical Diffusivity */
(PID.TID 0000.0001)    24 @  1.000000000000000E-06              /* K =  1: 24 */
(PID.TID 0000.0001)     ;
(PID.TID 0000.0001) PTRACERS_useGMRedi = /* apply GM-Redi */
(PID.TID 0000.0001)                   F
(PID.TID 0000.0001)     ;
(PID.TID 0000.0001) PTRACERS_useDWNSLP = /* apply DOWN-SLOPE Flow */
(PID.TID 0000.0001)                   F
(PID.TID 0000.0001)     ;
(PID.TID 0000.0001) PTRACERS_useKPP = /* apply KPP scheme */
(PID.TID 0000.0001)                   T
(PID.TID 0000.0001)     ;
(PID.TID 0000.0001) PTRACERS_ref = /* Reference vertical profile */
(PID.TID 0000.0001)    24 @  0.000000000000000E+00              /* K =  1: 24 */
(PID.TID 0000.0001)     ;
(PID.TID 0000.0001) PTRACERS_EvPrRn =/* tracer conc. in Evap. & Rain */
(PID.TID 0000.0001)                 1.234567000000000E+05
(PID.TID 0000.0001)     ;
(PID.TID 0000.0001)  -----------------------------------
(PID.TID 0000.0001)  tracer number :   12
(PID.TID 0000.0001) PTRACERS_names = /* Tracer short name */
(PID.TID 0000.0001)               'ZOO2P'
(PID.TID 0000.0001)     ;
(PID.TID 0000.0001) PTRACERS_long_names = /* Tracer long name */
(PID.TID 0000.0001)               ''
(PID.TID 0000.0001)     ;
(PID.TID 0000.0001) PTRACERS_ioLabel = /* tracer IO Label */
(PID.TID 0000.0001)               '12'
(PID.TID 0000.0001)     ;
(PID.TID 0000.0001) PTRACERS_advScheme = /* Advection Scheme */
(PID.TID 0000.0001)                      33
(PID.TID 0000.0001)     ;
(PID.TID 0000.0001) PTRACERS_SOM_Advection = /* tracer uses SOM advection scheme */
(PID.TID 0000.0001)                   F
(PID.TID 0000.0001)     ;
(PID.TID 0000.0001) PTRACERS_ImplVertAdv = /* implicit vert. advection flag */
(PID.TID 0000.0001)                   F
(PID.TID 0000.0001)     ;
(PID.TID 0000.0001) PTRACERS_diffKh = /* Laplacian Diffusivity */
(PID.TID 0000.0001)                 0.000000000000000E+00
(PID.TID 0000.0001)     ;
(PID.TID 0000.0001) PTRACERS_diffK4 = /* Biharmonic Diffusivity */
(PID.TID 0000.0001)                 0.000000000000000E+00
(PID.TID 0000.0001)     ;
(PID.TID 0000.0001) PTRACERS_diffKrNr = /* Vertical Diffusivity */
(PID.TID 0000.0001)    24 @  1.000000000000000E-06              /* K =  1: 24 */
(PID.TID 0000.0001)     ;
(PID.TID 0000.0001) PTRACERS_useGMRedi = /* apply GM-Redi */
(PID.TID 0000.0001)                   F
(PID.TID 0000.0001)     ;
(PID.TID 0000.0001) PTRACERS_useDWNSLP = /* apply DOWN-SLOPE Flow */
(PID.TID 0000.0001)                   F
(PID.TID 0000.0001)     ;
(PID.TID 0000.0001) PTRACERS_useKPP = /* apply KPP scheme */
(PID.TID 0000.0001)                   T
(PID.TID 0000.0001)     ;
(PID.TID 0000.0001) PTRACERS_ref = /* Reference vertical profile */
(PID.TID 0000.0001)    24 @  0.000000000000000E+00              /* K =  1: 24 */
(PID.TID 0000.0001)     ;
(PID.TID 0000.0001) PTRACERS_EvPrRn =/* tracer conc. in Evap. & Rain */
(PID.TID 0000.0001)                 1.234567000000000E+05
(PID.TID 0000.0001)     ;
(PID.TID 0000.0001)  -----------------------------------
(PID.TID 0000.0001)  tracer number :   13
(PID.TID 0000.0001) PTRACERS_names = /* Tracer short name */
(PID.TID 0000.0001)               'ZOO2N'
(PID.TID 0000.0001)     ;
(PID.TID 0000.0001) PTRACERS_long_names = /* Tracer long name */
(PID.TID 0000.0001)               ''
(PID.TID 0000.0001)     ;
(PID.TID 0000.0001) PTRACERS_ioLabel = /* tracer IO Label */
(PID.TID 0000.0001)               '13'
(PID.TID 0000.0001)     ;
(PID.TID 0000.0001) PTRACERS_advScheme = /* Advection Scheme */
(PID.TID 0000.0001)                      33
(PID.TID 0000.0001)     ;
(PID.TID 0000.0001) PTRACERS_SOM_Advection = /* tracer uses SOM advection scheme */
(PID.TID 0000.0001)                   F
(PID.TID 0000.0001)     ;
(PID.TID 0000.0001) PTRACERS_ImplVertAdv = /* implicit vert. advection flag */
(PID.TID 0000.0001)                   F
(PID.TID 0000.0001)     ;
(PID.TID 0000.0001) PTRACERS_diffKh = /* Laplacian Diffusivity */
(PID.TID 0000.0001)                 0.000000000000000E+00
(PID.TID 0000.0001)     ;
(PID.TID 0000.0001) PTRACERS_diffK4 = /* Biharmonic Diffusivity */
(PID.TID 0000.0001)                 0.000000000000000E+00
(PID.TID 0000.0001)     ;
(PID.TID 0000.0001) PTRACERS_diffKrNr = /* Vertical Diffusivity */
(PID.TID 0000.0001)    24 @  1.000000000000000E-06              /* K =  1: 24 */
(PID.TID 0000.0001)     ;
(PID.TID 0000.0001) PTRACERS_useGMRedi = /* apply GM-Redi */
(PID.TID 0000.0001)                   F
(PID.TID 0000.0001)     ;
(PID.TID 0000.0001) PTRACERS_useDWNSLP = /* apply DOWN-SLOPE Flow */
(PID.TID 0000.0001)                   F
(PID.TID 0000.0001)     ;
(PID.TID 0000.0001) PTRACERS_useKPP = /* apply KPP scheme */
(PID.TID 0000.0001)                   T
(PID.TID 0000.0001)     ;
(PID.TID 0000.0001) PTRACERS_ref = /* Reference vertical profile */
(PID.TID 0000.0001)    24 @  0.000000000000000E+00              /* K =  1: 24 */
(PID.TID 0000.0001)     ;
(PID.TID 0000.0001) PTRACERS_EvPrRn =/* tracer conc. in Evap. & Rain */
(PID.TID 0000.0001)                 1.234567000000000E+05
(PID.TID 0000.0001)     ;
(PID.TID 0000.0001)  -----------------------------------
(PID.TID 0000.0001)  tracer number :   14
(PID.TID 0000.0001) PTRACERS_names = /* Tracer short name */
(PID.TID 0000.0001)               'ZOO2Fe'
(PID.TID 0000.0001)     ;
(PID.TID 0000.0001) PTRACERS_long_names = /* Tracer long name */
(PID.TID 0000.0001)               ''
(PID.TID 0000.0001)     ;
(PID.TID 0000.0001) PTRACERS_ioLabel = /* tracer IO Label */
(PID.TID 0000.0001)               '14'
(PID.TID 0000.0001)     ;
(PID.TID 0000.0001) PTRACERS_advScheme = /* Advection Scheme */
(PID.TID 0000.0001)                      33
(PID.TID 0000.0001)     ;
(PID.TID 0000.0001) PTRACERS_SOM_Advection = /* tracer uses SOM advection scheme */
(PID.TID 0000.0001)                   F
(PID.TID 0000.0001)     ;
(PID.TID 0000.0001) PTRACERS_ImplVertAdv = /* implicit vert. advection flag */
(PID.TID 0000.0001)                   F
(PID.TID 0000.0001)     ;
(PID.TID 0000.0001) PTRACERS_diffKh = /* Laplacian Diffusivity */
(PID.TID 0000.0001)                 0.000000000000000E+00
(PID.TID 0000.0001)     ;
(PID.TID 0000.0001) PTRACERS_diffK4 = /* Biharmonic Diffusivity */
(PID.TID 0000.0001)                 0.000000000000000E+00
(PID.TID 0000.0001)     ;
(PID.TID 0000.0001) PTRACERS_diffKrNr = /* Vertical Diffusivity */
(PID.TID 0000.0001)    24 @  1.000000000000000E-06              /* K =  1: 24 */
(PID.TID 0000.0001)     ;
(PID.TID 0000.0001) PTRACERS_useGMRedi = /* apply GM-Redi */
(PID.TID 0000.0001)                   F
(PID.TID 0000.0001)     ;
(PID.TID 0000.0001) PTRACERS_useDWNSLP = /* apply DOWN-SLOPE Flow */
(PID.TID 0000.0001)                   F
(PID.TID 0000.0001)     ;
(PID.TID 0000.0001) PTRACERS_useKPP = /* apply KPP scheme */
(PID.TID 0000.0001)                   T
(PID.TID 0000.0001)     ;
(PID.TID 0000.0001) PTRACERS_ref = /* Reference vertical profile */
(PID.TID 0000.0001)    24 @  0.000000000000000E+00              /* K =  1: 24 */
(PID.TID 0000.0001)     ;
(PID.TID 0000.0001) PTRACERS_EvPrRn =/* tracer conc. in Evap. & Rain */
(PID.TID 0000.0001)                 1.234567000000000E+05
(PID.TID 0000.0001)     ;
(PID.TID 0000.0001)  -----------------------------------
(PID.TID 0000.0001)  tracer number :   15
(PID.TID 0000.0001) PTRACERS_names = /* Tracer short name */
(PID.TID 0000.0001)               'ZOO2Si'
(PID.TID 0000.0001)     ;
(PID.TID 0000.0001) PTRACERS_long_names = /* Tracer long name */
(PID.TID 0000.0001)               ''
(PID.TID 0000.0001)     ;
(PID.TID 0000.0001) PTRACERS_ioLabel = /* tracer IO Label */
(PID.TID 0000.0001)               '15'
(PID.TID 0000.0001)     ;
(PID.TID 0000.0001) PTRACERS_advScheme = /* Advection Scheme */
(PID.TID 0000.0001)                      33
(PID.TID 0000.0001)     ;
(PID.TID 0000.0001) PTRACERS_SOM_Advection = /* tracer uses SOM advection scheme */
(PID.TID 0000.0001)                   F
(PID.TID 0000.0001)     ;
(PID.TID 0000.0001) PTRACERS_ImplVertAdv = /* implicit vert. advection flag */
(PID.TID 0000.0001)                   F
(PID.TID 0000.0001)     ;
(PID.TID 0000.0001) PTRACERS_diffKh = /* Laplacian Diffusivity */
(PID.TID 0000.0001)                 0.000000000000000E+00
(PID.TID 0000.0001)     ;
(PID.TID 0000.0001) PTRACERS_diffK4 = /* Biharmonic Diffusivity */
(PID.TID 0000.0001)                 0.000000000000000E+00
(PID.TID 0000.0001)     ;
(PID.TID 0000.0001) PTRACERS_diffKrNr = /* Vertical Diffusivity */
(PID.TID 0000.0001)    24 @  1.000000000000000E-06              /* K =  1: 24 */
(PID.TID 0000.0001)     ;
(PID.TID 0000.0001) PTRACERS_useGMRedi = /* apply GM-Redi */
(PID.TID 0000.0001)                   F
(PID.TID 0000.0001)     ;
(PID.TID 0000.0001) PTRACERS_useDWNSLP = /* apply DOWN-SLOPE Flow */
(PID.TID 0000.0001)                   F
(PID.TID 0000.0001)     ;
(PID.TID 0000.0001) PTRACERS_useKPP = /* apply KPP scheme */
(PID.TID 0000.0001)                   T
(PID.TID 0000.0001)     ;
(PID.TID 0000.0001) PTRACERS_ref = /* Reference vertical profile */
(PID.TID 0000.0001)    24 @  0.000000000000000E+00              /* K =  1: 24 */
(PID.TID 0000.0001)     ;
(PID.TID 0000.0001) PTRACERS_EvPrRn =/* tracer conc. in Evap. & Rain */
(PID.TID 0000.0001)                 1.234567000000000E+05
(PID.TID 0000.0001)     ;
(PID.TID 0000.0001)  -----------------------------------
(PID.TID 0000.0001)  tracer number :   16
(PID.TID 0000.0001) PTRACERS_names = /* Tracer short name */
(PID.TID 0000.0001)               'POP'
(PID.TID 0000.0001)     ;
(PID.TID 0000.0001) PTRACERS_long_names = /* Tracer long name */
(PID.TID 0000.0001)               ''
(PID.TID 0000.0001)     ;
(PID.TID 0000.0001) PTRACERS_ioLabel = /* tracer IO Label */
(PID.TID 0000.0001)               '16'
(PID.TID 0000.0001)     ;
(PID.TID 0000.0001) PTRACERS_advScheme = /* Advection Scheme */
(PID.TID 0000.0001)                      33
(PID.TID 0000.0001)     ;
(PID.TID 0000.0001) PTRACERS_SOM_Advection = /* tracer uses SOM advection scheme */
(PID.TID 0000.0001)                   F
(PID.TID 0000.0001)     ;
(PID.TID 0000.0001) PTRACERS_ImplVertAdv = /* implicit vert. advection flag */
(PID.TID 0000.0001)                   F
(PID.TID 0000.0001)     ;
(PID.TID 0000.0001) PTRACERS_diffKh = /* Laplacian Diffusivity */
(PID.TID 0000.0001)                 0.000000000000000E+00
(PID.TID 0000.0001)     ;
(PID.TID 0000.0001) PTRACERS_diffK4 = /* Biharmonic Diffusivity */
(PID.TID 0000.0001)                 0.000000000000000E+00
(PID.TID 0000.0001)     ;
(PID.TID 0000.0001) PTRACERS_diffKrNr = /* Vertical Diffusivity */
(PID.TID 0000.0001)    24 @  1.000000000000000E-06              /* K =  1: 24 */
(PID.TID 0000.0001)     ;
(PID.TID 0000.0001) PTRACERS_useGMRedi = /* apply GM-Redi */
(PID.TID 0000.0001)                   F
(PID.TID 0000.0001)     ;
(PID.TID 0000.0001) PTRACERS_useDWNSLP = /* apply DOWN-SLOPE Flow */
(PID.TID 0000.0001)                   F
(PID.TID 0000.0001)     ;
(PID.TID 0000.0001) PTRACERS_useKPP = /* apply KPP scheme */
(PID.TID 0000.0001)                   T
(PID.TID 0000.0001)     ;
(PID.TID 0000.0001) PTRACERS_ref = /* Reference vertical profile */
(PID.TID 0000.0001)    24 @  0.000000000000000E+00              /* K =  1: 24 */
(PID.TID 0000.0001)     ;
(PID.TID 0000.0001) PTRACERS_EvPrRn =/* tracer conc. in Evap. & Rain */
(PID.TID 0000.0001)                 1.234567000000000E+05
(PID.TID 0000.0001)     ;
(PID.TID 0000.0001)  -----------------------------------
(PID.TID 0000.0001)  tracer number :   17
(PID.TID 0000.0001) PTRACERS_names = /* Tracer short name */
(PID.TID 0000.0001)               'PON'
(PID.TID 0000.0001)     ;
(PID.TID 0000.0001) PTRACERS_long_names = /* Tracer long name */
(PID.TID 0000.0001)               ''
(PID.TID 0000.0001)     ;
(PID.TID 0000.0001) PTRACERS_ioLabel = /* tracer IO Label */
(PID.TID 0000.0001)               '17'
(PID.TID 0000.0001)     ;
(PID.TID 0000.0001) PTRACERS_advScheme = /* Advection Scheme */
(PID.TID 0000.0001)                      33
(PID.TID 0000.0001)     ;
(PID.TID 0000.0001) PTRACERS_SOM_Advection = /* tracer uses SOM advection scheme */
(PID.TID 0000.0001)                   F
(PID.TID 0000.0001)     ;
(PID.TID 0000.0001) PTRACERS_ImplVertAdv = /* implicit vert. advection flag */
(PID.TID 0000.0001)                   F
(PID.TID 0000.0001)     ;
(PID.TID 0000.0001) PTRACERS_diffKh = /* Laplacian Diffusivity */
(PID.TID 0000.0001)                 0.000000000000000E+00
(PID.TID 0000.0001)     ;
(PID.TID 0000.0001) PTRACERS_diffK4 = /* Biharmonic Diffusivity */
(PID.TID 0000.0001)                 0.000000000000000E+00
(PID.TID 0000.0001)     ;
(PID.TID 0000.0001) PTRACERS_diffKrNr = /* Vertical Diffusivity */
(PID.TID 0000.0001)    24 @  1.000000000000000E-06              /* K =  1: 24 */
(PID.TID 0000.0001)     ;
(PID.TID 0000.0001) PTRACERS_useGMRedi = /* apply GM-Redi */
(PID.TID 0000.0001)                   F
(PID.TID 0000.0001)     ;
(PID.TID 0000.0001) PTRACERS_useDWNSLP = /* apply DOWN-SLOPE Flow */
(PID.TID 0000.0001)                   F
(PID.TID 0000.0001)     ;
(PID.TID 0000.0001) PTRACERS_useKPP = /* apply KPP scheme */
(PID.TID 0000.0001)                   T
(PID.TID 0000.0001)     ;
(PID.TID 0000.0001) PTRACERS_ref = /* Reference vertical profile */
(PID.TID 0000.0001)    24 @  0.000000000000000E+00              /* K =  1: 24 */
(PID.TID 0000.0001)     ;
(PID.TID 0000.0001) PTRACERS_EvPrRn =/* tracer conc. in Evap. & Rain */
(PID.TID 0000.0001)                 1.234567000000000E+05
(PID.TID 0000.0001)     ;
(PID.TID 0000.0001)  -----------------------------------
(PID.TID 0000.0001)  tracer number :   18
(PID.TID 0000.0001) PTRACERS_names = /* Tracer short name */
(PID.TID 0000.0001)               'POFe'
(PID.TID 0000.0001)     ;
(PID.TID 0000.0001) PTRACERS_long_names = /* Tracer long name */
(PID.TID 0000.0001)               ''
(PID.TID 0000.0001)     ;
(PID.TID 0000.0001) PTRACERS_ioLabel = /* tracer IO Label */
(PID.TID 0000.0001)               '18'
(PID.TID 0000.0001)     ;
(PID.TID 0000.0001) PTRACERS_advScheme = /* Advection Scheme */
(PID.TID 0000.0001)                      33
(PID.TID 0000.0001)     ;
(PID.TID 0000.0001) PTRACERS_SOM_Advection = /* tracer uses SOM advection scheme */
(PID.TID 0000.0001)                   F
(PID.TID 0000.0001)     ;
(PID.TID 0000.0001) PTRACERS_ImplVertAdv = /* implicit vert. advection flag */
(PID.TID 0000.0001)                   F
(PID.TID 0000.0001)     ;
(PID.TID 0000.0001) PTRACERS_diffKh = /* Laplacian Diffusivity */
(PID.TID 0000.0001)                 0.000000000000000E+00
(PID.TID 0000.0001)     ;
(PID.TID 0000.0001) PTRACERS_diffK4 = /* Biharmonic Diffusivity */
(PID.TID 0000.0001)                 0.000000000000000E+00
(PID.TID 0000.0001)     ;
(PID.TID 0000.0001) PTRACERS_diffKrNr = /* Vertical Diffusivity */
(PID.TID 0000.0001)    24 @  1.000000000000000E-06              /* K =  1: 24 */
(PID.TID 0000.0001)     ;
(PID.TID 0000.0001) PTRACERS_useGMRedi = /* apply GM-Redi */
(PID.TID 0000.0001)                   F
(PID.TID 0000.0001)     ;
(PID.TID 0000.0001) PTRACERS_useDWNSLP = /* apply DOWN-SLOPE Flow */
(PID.TID 0000.0001)                   F
(PID.TID 0000.0001)     ;
(PID.TID 0000.0001) PTRACERS_useKPP = /* apply KPP scheme */
(PID.TID 0000.0001)                   T
(PID.TID 0000.0001)     ;
(PID.TID 0000.0001) PTRACERS_ref = /* Reference vertical profile */
(PID.TID 0000.0001)    24 @  0.000000000000000E+00              /* K =  1: 24 */
(PID.TID 0000.0001)     ;
(PID.TID 0000.0001) PTRACERS_EvPrRn =/* tracer conc. in Evap. & Rain */
(PID.TID 0000.0001)                 1.234567000000000E+05
(PID.TID 0000.0001)     ;
(PID.TID 0000.0001)  -----------------------------------
(PID.TID 0000.0001)  tracer number :   19
(PID.TID 0000.0001) PTRACERS_names = /* Tracer short name */
(PID.TID 0000.0001)               'POSi'
(PID.TID 0000.0001)     ;
(PID.TID 0000.0001) PTRACERS_long_names = /* Tracer long name */
(PID.TID 0000.0001)               ''
(PID.TID 0000.0001)     ;
(PID.TID 0000.0001) PTRACERS_ioLabel = /* tracer IO Label */
(PID.TID 0000.0001)               '19'
(PID.TID 0000.0001)     ;
(PID.TID 0000.0001) PTRACERS_advScheme = /* Advection Scheme */
(PID.TID 0000.0001)                      33
(PID.TID 0000.0001)     ;
(PID.TID 0000.0001) PTRACERS_SOM_Advection = /* tracer uses SOM advection scheme */
(PID.TID 0000.0001)                   F
(PID.TID 0000.0001)     ;
(PID.TID 0000.0001) PTRACERS_ImplVertAdv = /* implicit vert. advection flag */
(PID.TID 0000.0001)                   F
(PID.TID 0000.0001)     ;
(PID.TID 0000.0001) PTRACERS_diffKh = /* Laplacian Diffusivity */
(PID.TID 0000.0001)                 0.000000000000000E+00
(PID.TID 0000.0001)     ;
(PID.TID 0000.0001) PTRACERS_diffK4 = /* Biharmonic Diffusivity */
(PID.TID 0000.0001)                 0.000000000000000E+00
(PID.TID 0000.0001)     ;
(PID.TID 0000.0001) PTRACERS_diffKrNr = /* Vertical Diffusivity */
(PID.TID 0000.0001)    24 @  1.000000000000000E-06              /* K =  1: 24 */
(PID.TID 0000.0001)     ;
(PID.TID 0000.0001) PTRACERS_useGMRedi = /* apply GM-Redi */
(PID.TID 0000.0001)                   F
(PID.TID 0000.0001)     ;
(PID.TID 0000.0001) PTRACERS_useDWNSLP = /* apply DOWN-SLOPE Flow */
(PID.TID 0000.0001)                   F
(PID.TID 0000.0001)     ;
(PID.TID 0000.0001) PTRACERS_useKPP = /* apply KPP scheme */
(PID.TID 0000.0001)                   T
(PID.TID 0000.0001)     ;
(PID.TID 0000.0001) PTRACERS_ref = /* Reference vertical profile */
(PID.TID 0000.0001)    24 @  0.000000000000000E+00              /* K =  1: 24 */
(PID.TID 0000.0001)     ;
(PID.TID 0000.0001) PTRACERS_EvPrRn =/* tracer conc. in Evap. & Rain */
(PID.TID 0000.0001)                 1.234567000000000E+05
(PID.TID 0000.0001)     ;
(PID.TID 0000.0001)  -----------------------------------
(PID.TID 0000.0001)  tracer number :   20
(PID.TID 0000.0001) PTRACERS_names = /* Tracer short name */
(PID.TID 0000.0001)               'NH4'
(PID.TID 0000.0001)     ;
(PID.TID 0000.0001) PTRACERS_long_names = /* Tracer long name */
(PID.TID 0000.0001)               ''
(PID.TID 0000.0001)     ;
(PID.TID 0000.0001) PTRACERS_ioLabel = /* tracer IO Label */
(PID.TID 0000.0001)               '20'
(PID.TID 0000.0001)     ;
(PID.TID 0000.0001) PTRACERS_advScheme = /* Advection Scheme */
(PID.TID 0000.0001)                      33
(PID.TID 0000.0001)     ;
(PID.TID 0000.0001) PTRACERS_SOM_Advection = /* tracer uses SOM advection scheme */
(PID.TID 0000.0001)                   F
(PID.TID 0000.0001)     ;
(PID.TID 0000.0001) PTRACERS_ImplVertAdv = /* implicit vert. advection flag */
(PID.TID 0000.0001)                   F
(PID.TID 0000.0001)     ;
(PID.TID 0000.0001) PTRACERS_diffKh = /* Laplacian Diffusivity */
(PID.TID 0000.0001)                 0.000000000000000E+00
(PID.TID 0000.0001)     ;
(PID.TID 0000.0001) PTRACERS_diffK4 = /* Biharmonic Diffusivity */
(PID.TID 0000.0001)                 0.000000000000000E+00
(PID.TID 0000.0001)     ;
(PID.TID 0000.0001) PTRACERS_diffKrNr = /* Vertical Diffusivity */
(PID.TID 0000.0001)    24 @  1.000000000000000E-06              /* K =  1: 24 */
(PID.TID 0000.0001)     ;
(PID.TID 0000.0001) PTRACERS_useGMRedi = /* apply GM-Redi */
(PID.TID 0000.0001)                   F
(PID.TID 0000.0001)     ;
(PID.TID 0000.0001) PTRACERS_useDWNSLP = /* apply DOWN-SLOPE Flow */
(PID.TID 0000.0001)                   F
(PID.TID 0000.0001)     ;
(PID.TID 0000.0001) PTRACERS_useKPP = /* apply KPP scheme */
(PID.TID 0000.0001)                   T
(PID.TID 0000.0001)     ;
(PID.TID 0000.0001) PTRACERS_ref = /* Reference vertical profile */
(PID.TID 0000.0001)    24 @  0.000000000000000E+00              /* K =  1: 24 */
(PID.TID 0000.0001)     ;
(PID.TID 0000.0001) PTRACERS_EvPrRn =/* tracer conc. in Evap. & Rain */
(PID.TID 0000.0001)                 1.234567000000000E+05
(PID.TID 0000.0001)     ;
(PID.TID 0000.0001)  -----------------------------------
(PID.TID 0000.0001)  tracer number :   21
(PID.TID 0000.0001) PTRACERS_names = /* Tracer short name */
(PID.TID 0000.0001)               'NO2'
(PID.TID 0000.0001)     ;
(PID.TID 0000.0001) PTRACERS_long_names = /* Tracer long name */
(PID.TID 0000.0001)               ''
(PID.TID 0000.0001)     ;
(PID.TID 0000.0001) PTRACERS_ioLabel = /* tracer IO Label */
(PID.TID 0000.0001)               '21'
(PID.TID 0000.0001)     ;
(PID.TID 0000.0001) PTRACERS_advScheme = /* Advection Scheme */
(PID.TID 0000.0001)                      33
(PID.TID 0000.0001)     ;
(PID.TID 0000.0001) PTRACERS_SOM_Advection = /* tracer uses SOM advection scheme */
(PID.TID 0000.0001)                   F
(PID.TID 0000.0001)     ;
(PID.TID 0000.0001) PTRACERS_ImplVertAdv = /* implicit vert. advection flag */
(PID.TID 0000.0001)                   F
(PID.TID 0000.0001)     ;
(PID.TID 0000.0001) PTRACERS_diffKh = /* Laplacian Diffusivity */
(PID.TID 0000.0001)                 0.000000000000000E+00
(PID.TID 0000.0001)     ;
(PID.TID 0000.0001) PTRACERS_diffK4 = /* Biharmonic Diffusivity */
(PID.TID 0000.0001)                 0.000000000000000E+00
(PID.TID 0000.0001)     ;
(PID.TID 0000.0001) PTRACERS_diffKrNr = /* Vertical Diffusivity */
(PID.TID 0000.0001)    24 @  1.000000000000000E-06              /* K =  1: 24 */
(PID.TID 0000.0001)     ;
(PID.TID 0000.0001) PTRACERS_useGMRedi = /* apply GM-Redi */
(PID.TID 0000.0001)                   F
(PID.TID 0000.0001)     ;
(PID.TID 0000.0001) PTRACERS_useDWNSLP = /* apply DOWN-SLOPE Flow */
(PID.TID 0000.0001)                   F
(PID.TID 0000.0001)     ;
(PID.TID 0000.0001) PTRACERS_useKPP = /* apply KPP scheme */
(PID.TID 0000.0001)                   T
(PID.TID 0000.0001)     ;
(PID.TID 0000.0001) PTRACERS_ref = /* Reference vertical profile */
(PID.TID 0000.0001)    24 @  0.000000000000000E+00              /* K =  1: 24 */
(PID.TID 0000.0001)     ;
(PID.TID 0000.0001) PTRACERS_EvPrRn =/* tracer conc. in Evap. & Rain */
(PID.TID 0000.0001)                 1.234567000000000E+05
(PID.TID 0000.0001)     ;
(PID.TID 0000.0001)  -----------------------------------
(PID.TID 0000.0001)  tracer number :   22
(PID.TID 0000.0001) PTRACERS_names = /* Tracer short name */
(PID.TID 0000.0001)               'Phy01'
(PID.TID 0000.0001)     ;
(PID.TID 0000.0001) PTRACERS_long_names = /* Tracer long name */
(PID.TID 0000.0001)               ''
(PID.TID 0000.0001)     ;
(PID.TID 0000.0001) PTRACERS_ioLabel = /* tracer IO Label */
(PID.TID 0000.0001)               '22'
(PID.TID 0000.0001)     ;
(PID.TID 0000.0001) PTRACERS_advScheme = /* Advection Scheme */
(PID.TID 0000.0001)                      33
(PID.TID 0000.0001)     ;
(PID.TID 0000.0001) PTRACERS_SOM_Advection = /* tracer uses SOM advection scheme */
(PID.TID 0000.0001)                   F
(PID.TID 0000.0001)     ;
(PID.TID 0000.0001) PTRACERS_ImplVertAdv = /* implicit vert. advection flag */
(PID.TID 0000.0001)                   F
(PID.TID 0000.0001)     ;
(PID.TID 0000.0001) PTRACERS_diffKh = /* Laplacian Diffusivity */
(PID.TID 0000.0001)                 0.000000000000000E+00
(PID.TID 0000.0001)     ;
(PID.TID 0000.0001) PTRACERS_diffK4 = /* Biharmonic Diffusivity */
(PID.TID 0000.0001)                 0.000000000000000E+00
(PID.TID 0000.0001)     ;
(PID.TID 0000.0001) PTRACERS_diffKrNr = /* Vertical Diffusivity */
(PID.TID 0000.0001)    24 @  1.000000000000000E-06              /* K =  1: 24 */
(PID.TID 0000.0001)     ;
(PID.TID 0000.0001) PTRACERS_useGMRedi = /* apply GM-Redi */
(PID.TID 0000.0001)                   F
(PID.TID 0000.0001)     ;
(PID.TID 0000.0001) PTRACERS_useDWNSLP = /* apply DOWN-SLOPE Flow */
(PID.TID 0000.0001)                   F
(PID.TID 0000.0001)     ;
(PID.TID 0000.0001) PTRACERS_useKPP = /* apply KPP scheme */
(PID.TID 0000.0001)                   T
(PID.TID 0000.0001)     ;
(PID.TID 0000.0001) PTRACERS_ref = /* Reference vertical profile */
(PID.TID 0000.0001)    24 @  0.000000000000000E+00              /* K =  1: 24 */
(PID.TID 0000.0001)     ;
(PID.TID 0000.0001) PTRACERS_EvPrRn =/* tracer conc. in Evap. & Rain */
(PID.TID 0000.0001)                 1.234567000000000E+05
(PID.TID 0000.0001)     ;
(PID.TID 0000.0001)  -----------------------------------
(PID.TID 0000.0001)  tracer number :   23
(PID.TID 0000.0001) PTRACERS_names = /* Tracer short name */
(PID.TID 0000.0001)               'Phy02'
(PID.TID 0000.0001)     ;
(PID.TID 0000.0001) PTRACERS_long_names = /* Tracer long name */
(PID.TID 0000.0001)               ''
(PID.TID 0000.0001)     ;
(PID.TID 0000.0001) PTRACERS_ioLabel = /* tracer IO Label */
(PID.TID 0000.0001)               '23'
(PID.TID 0000.0001)     ;
(PID.TID 0000.0001) PTRACERS_advScheme = /* Advection Scheme */
(PID.TID 0000.0001)                      33
(PID.TID 0000.0001)     ;
(PID.TID 0000.0001) PTRACERS_SOM_Advection = /* tracer uses SOM advection scheme */
(PID.TID 0000.0001)                   F
(PID.TID 0000.0001)     ;
(PID.TID 0000.0001) PTRACERS_ImplVertAdv = /* implicit vert. advection flag */
(PID.TID 0000.0001)                   F
(PID.TID 0000.0001)     ;
(PID.TID 0000.0001) PTRACERS_diffKh = /* Laplacian Diffusivity */
(PID.TID 0000.0001)                 0.000000000000000E+00
(PID.TID 0000.0001)     ;
(PID.TID 0000.0001) PTRACERS_diffK4 = /* Biharmonic Diffusivity */
(PID.TID 0000.0001)                 0.000000000000000E+00
(PID.TID 0000.0001)     ;
(PID.TID 0000.0001) PTRACERS_diffKrNr = /* Vertical Diffusivity */
(PID.TID 0000.0001)    24 @  1.000000000000000E-06              /* K =  1: 24 */
(PID.TID 0000.0001)     ;
(PID.TID 0000.0001) PTRACERS_useGMRedi = /* apply GM-Redi */
(PID.TID 0000.0001)                   F
(PID.TID 0000.0001)     ;
(PID.TID 0000.0001) PTRACERS_useDWNSLP = /* apply DOWN-SLOPE Flow */
(PID.TID 0000.0001)                   F
(PID.TID 0000.0001)     ;
(PID.TID 0000.0001) PTRACERS_useKPP = /* apply KPP scheme */
(PID.TID 0000.0001)                   T
(PID.TID 0000.0001)     ;
(PID.TID 0000.0001) PTRACERS_ref = /* Reference vertical profile */
(PID.TID 0000.0001)    24 @  0.000000000000000E+00              /* K =  1: 24 */
(PID.TID 0000.0001)     ;
(PID.TID 0000.0001) PTRACERS_EvPrRn =/* tracer conc. in Evap. & Rain */
(PID.TID 0000.0001)                 1.234567000000000E+05
(PID.TID 0000.0001)     ;
(PID.TID 0000.0001)  -----------------------------------
(PID.TID 0000.0001)  tracer number :   24
(PID.TID 0000.0001) PTRACERS_names = /* Tracer short name */
(PID.TID 0000.0001)               'Phy03'
(PID.TID 0000.0001)     ;
(PID.TID 0000.0001) PTRACERS_long_names = /* Tracer long name */
(PID.TID 0000.0001)               ''
(PID.TID 0000.0001)     ;
(PID.TID 0000.0001) PTRACERS_ioLabel = /* tracer IO Label */
(PID.TID 0000.0001)               '24'
(PID.TID 0000.0001)     ;
(PID.TID 0000.0001) PTRACERS_advScheme = /* Advection Scheme */
(PID.TID 0000.0001)                      33
(PID.TID 0000.0001)     ;
(PID.TID 0000.0001) PTRACERS_SOM_Advection = /* tracer uses SOM advection scheme */
(PID.TID 0000.0001)                   F
(PID.TID 0000.0001)     ;
(PID.TID 0000.0001) PTRACERS_ImplVertAdv = /* implicit vert. advection flag */
(PID.TID 0000.0001)                   F
(PID.TID 0000.0001)     ;
(PID.TID 0000.0001) PTRACERS_diffKh = /* Laplacian Diffusivity */
(PID.TID 0000.0001)                 0.000000000000000E+00
(PID.TID 0000.0001)     ;
(PID.TID 0000.0001) PTRACERS_diffK4 = /* Biharmonic Diffusivity */
(PID.TID 0000.0001)                 0.000000000000000E+00
(PID.TID 0000.0001)     ;
(PID.TID 0000.0001) PTRACERS_diffKrNr = /* Vertical Diffusivity */
(PID.TID 0000.0001)    24 @  1.000000000000000E-06              /* K =  1: 24 */
(PID.TID 0000.0001)     ;
(PID.TID 0000.0001) PTRACERS_useGMRedi = /* apply GM-Redi */
(PID.TID 0000.0001)                   F
(PID.TID 0000.0001)     ;
(PID.TID 0000.0001) PTRACERS_useDWNSLP = /* apply DOWN-SLOPE Flow */
(PID.TID 0000.0001)                   F
(PID.TID 0000.0001)     ;
(PID.TID 0000.0001) PTRACERS_useKPP = /* apply KPP scheme */
(PID.TID 0000.0001)                   T
(PID.TID 0000.0001)     ;
(PID.TID 0000.0001) PTRACERS_ref = /* Reference vertical profile */
(PID.TID 0000.0001)    24 @  0.000000000000000E+00              /* K =  1: 24 */
(PID.TID 0000.0001)     ;
(PID.TID 0000.0001) PTRACERS_EvPrRn =/* tracer conc. in Evap. & Rain */
(PID.TID 0000.0001)                 1.234567000000000E+05
(PID.TID 0000.0001)     ;
(PID.TID 0000.0001)  -----------------------------------
(PID.TID 0000.0001)  tracer number :   25
(PID.TID 0000.0001) PTRACERS_names = /* Tracer short name */
(PID.TID 0000.0001)               'Phy04'
(PID.TID 0000.0001)     ;
(PID.TID 0000.0001) PTRACERS_long_names = /* Tracer long name */
(PID.TID 0000.0001)               ''
(PID.TID 0000.0001)     ;
(PID.TID 0000.0001) PTRACERS_ioLabel = /* tracer IO Label */
(PID.TID 0000.0001)               '25'
(PID.TID 0000.0001)     ;
(PID.TID 0000.0001) PTRACERS_advScheme = /* Advection Scheme */
(PID.TID 0000.0001)                      33
(PID.TID 0000.0001)     ;
(PID.TID 0000.0001) PTRACERS_SOM_Advection = /* tracer uses SOM advection scheme */
(PID.TID 0000.0001)                   F
(PID.TID 0000.0001)     ;
(PID.TID 0000.0001) PTRACERS_ImplVertAdv = /* implicit vert. advection flag */
(PID.TID 0000.0001)                   F
(PID.TID 0000.0001)     ;
(PID.TID 0000.0001) PTRACERS_diffKh = /* Laplacian Diffusivity */
(PID.TID 0000.0001)                 0.000000000000000E+00
(PID.TID 0000.0001)     ;
(PID.TID 0000.0001) PTRACERS_diffK4 = /* Biharmonic Diffusivity */
(PID.TID 0000.0001)                 0.000000000000000E+00
(PID.TID 0000.0001)     ;
(PID.TID 0000.0001) PTRACERS_diffKrNr = /* Vertical Diffusivity */
(PID.TID 0000.0001)    24 @  1.000000000000000E-06              /* K =  1: 24 */
(PID.TID 0000.0001)     ;
(PID.TID 0000.0001) PTRACERS_useGMRedi = /* apply GM-Redi */
(PID.TID 0000.0001)                   F
(PID.TID 0000.0001)     ;
(PID.TID 0000.0001) PTRACERS_useDWNSLP = /* apply DOWN-SLOPE Flow */
(PID.TID 0000.0001)                   F
(PID.TID 0000.0001)     ;
(PID.TID 0000.0001) PTRACERS_useKPP = /* apply KPP scheme */
(PID.TID 0000.0001)                   T
(PID.TID 0000.0001)     ;
(PID.TID 0000.0001) PTRACERS_ref = /* Reference vertical profile */
(PID.TID 0000.0001)    24 @  0.000000000000000E+00              /* K =  1: 24 */
(PID.TID 0000.0001)     ;
(PID.TID 0000.0001) PTRACERS_EvPrRn =/* tracer conc. in Evap. & Rain */
(PID.TID 0000.0001)                 1.234567000000000E+05
(PID.TID 0000.0001)     ;
(PID.TID 0000.0001)  -----------------------------------
(PID.TID 0000.0001)  tracer number :   26
(PID.TID 0000.0001) PTRACERS_names = /* Tracer short name */
(PID.TID 0000.0001)               'Phy05'
(PID.TID 0000.0001)     ;
(PID.TID 0000.0001) PTRACERS_long_names = /* Tracer long name */
(PID.TID 0000.0001)               ''
(PID.TID 0000.0001)     ;
(PID.TID 0000.0001) PTRACERS_ioLabel = /* tracer IO Label */
(PID.TID 0000.0001)               '26'
(PID.TID 0000.0001)     ;
(PID.TID 0000.0001) PTRACERS_advScheme = /* Advection Scheme */
(PID.TID 0000.0001)                      33
(PID.TID 0000.0001)     ;
(PID.TID 0000.0001) PTRACERS_SOM_Advection = /* tracer uses SOM advection scheme */
(PID.TID 0000.0001)                   F
(PID.TID 0000.0001)     ;
(PID.TID 0000.0001) PTRACERS_ImplVertAdv = /* implicit vert. advection flag */
(PID.TID 0000.0001)                   F
(PID.TID 0000.0001)     ;
(PID.TID 0000.0001) PTRACERS_diffKh = /* Laplacian Diffusivity */
(PID.TID 0000.0001)                 0.000000000000000E+00
(PID.TID 0000.0001)     ;
(PID.TID 0000.0001) PTRACERS_diffK4 = /* Biharmonic Diffusivity */
(PID.TID 0000.0001)                 0.000000000000000E+00
(PID.TID 0000.0001)     ;
(PID.TID 0000.0001) PTRACERS_diffKrNr = /* Vertical Diffusivity */
(PID.TID 0000.0001)    24 @  1.000000000000000E-06              /* K =  1: 24 */
(PID.TID 0000.0001)     ;
(PID.TID 0000.0001) PTRACERS_useGMRedi = /* apply GM-Redi */
(PID.TID 0000.0001)                   F
(PID.TID 0000.0001)     ;
(PID.TID 0000.0001) PTRACERS_useDWNSLP = /* apply DOWN-SLOPE Flow */
(PID.TID 0000.0001)                   F
(PID.TID 0000.0001)     ;
(PID.TID 0000.0001) PTRACERS_useKPP = /* apply KPP scheme */
(PID.TID 0000.0001)                   T
(PID.TID 0000.0001)     ;
(PID.TID 0000.0001) PTRACERS_ref = /* Reference vertical profile */
(PID.TID 0000.0001)    24 @  0.000000000000000E+00              /* K =  1: 24 */
(PID.TID 0000.0001)     ;
(PID.TID 0000.0001) PTRACERS_EvPrRn =/* tracer conc. in Evap. & Rain */
(PID.TID 0000.0001)                 1.234567000000000E+05
(PID.TID 0000.0001)     ;
(PID.TID 0000.0001)  -----------------------------------
(PID.TID 0000.0001)  tracer number :   27
(PID.TID 0000.0001) PTRACERS_names = /* Tracer short name */
(PID.TID 0000.0001)               'Phy06'
(PID.TID 0000.0001)     ;
(PID.TID 0000.0001) PTRACERS_long_names = /* Tracer long name */
(PID.TID 0000.0001)               ''
(PID.TID 0000.0001)     ;
(PID.TID 0000.0001) PTRACERS_ioLabel = /* tracer IO Label */
(PID.TID 0000.0001)               '27'
(PID.TID 0000.0001)     ;
(PID.TID 0000.0001) PTRACERS_advScheme = /* Advection Scheme */
(PID.TID 0000.0001)                      33
(PID.TID 0000.0001)     ;
(PID.TID 0000.0001) PTRACERS_SOM_Advection = /* tracer uses SOM advection scheme */
(PID.TID 0000.0001)                   F
(PID.TID 0000.0001)     ;
(PID.TID 0000.0001) PTRACERS_ImplVertAdv = /* implicit vert. advection flag */
(PID.TID 0000.0001)                   F
(PID.TID 0000.0001)     ;
(PID.TID 0000.0001) PTRACERS_diffKh = /* Laplacian Diffusivity */
(PID.TID 0000.0001)                 0.000000000000000E+00
(PID.TID 0000.0001)     ;
(PID.TID 0000.0001) PTRACERS_diffK4 = /* Biharmonic Diffusivity */
(PID.TID 0000.0001)                 0.000000000000000E+00
(PID.TID 0000.0001)     ;
(PID.TID 0000.0001) PTRACERS_diffKrNr = /* Vertical Diffusivity */
(PID.TID 0000.0001)    24 @  1.000000000000000E-06              /* K =  1: 24 */
(PID.TID 0000.0001)     ;
(PID.TID 0000.0001) PTRACERS_useGMRedi = /* apply GM-Redi */
(PID.TID 0000.0001)                   F
(PID.TID 0000.0001)     ;
(PID.TID 0000.0001) PTRACERS_useDWNSLP = /* apply DOWN-SLOPE Flow */
(PID.TID 0000.0001)                   F
(PID.TID 0000.0001)     ;
(PID.TID 0000.0001) PTRACERS_useKPP = /* apply KPP scheme */
(PID.TID 0000.0001)                   T
(PID.TID 0000.0001)     ;
(PID.TID 0000.0001) PTRACERS_ref = /* Reference vertical profile */
(PID.TID 0000.0001)    24 @  0.000000000000000E+00              /* K =  1: 24 */
(PID.TID 0000.0001)     ;
(PID.TID 0000.0001) PTRACERS_EvPrRn =/* tracer conc. in Evap. & Rain */
(PID.TID 0000.0001)                 1.234567000000000E+05
(PID.TID 0000.0001)     ;
(PID.TID 0000.0001)  -----------------------------------
(PID.TID 0000.0001)  tracer number :   28
(PID.TID 0000.0001) PTRACERS_names = /* Tracer short name */
(PID.TID 0000.0001)               'Phy07'
(PID.TID 0000.0001)     ;
(PID.TID 0000.0001) PTRACERS_long_names = /* Tracer long name */
(PID.TID 0000.0001)               ''
(PID.TID 0000.0001)     ;
(PID.TID 0000.0001) PTRACERS_ioLabel = /* tracer IO Label */
(PID.TID 0000.0001)               '28'
(PID.TID 0000.0001)     ;
(PID.TID 0000.0001) PTRACERS_advScheme = /* Advection Scheme */
(PID.TID 0000.0001)                      33
(PID.TID 0000.0001)     ;
(PID.TID 0000.0001) PTRACERS_SOM_Advection = /* tracer uses SOM advection scheme */
(PID.TID 0000.0001)                   F
(PID.TID 0000.0001)     ;
(PID.TID 0000.0001) PTRACERS_ImplVertAdv = /* implicit vert. advection flag */
(PID.TID 0000.0001)                   F
(PID.TID 0000.0001)     ;
(PID.TID 0000.0001) PTRACERS_diffKh = /* Laplacian Diffusivity */
(PID.TID 0000.0001)                 0.000000000000000E+00
(PID.TID 0000.0001)     ;
(PID.TID 0000.0001) PTRACERS_diffK4 = /* Biharmonic Diffusivity */
(PID.TID 0000.0001)                 0.000000000000000E+00
(PID.TID 0000.0001)     ;
(PID.TID 0000.0001) PTRACERS_diffKrNr = /* Vertical Diffusivity */
(PID.TID 0000.0001)    24 @  1.000000000000000E-06              /* K =  1: 24 */
(PID.TID 0000.0001)     ;
(PID.TID 0000.0001) PTRACERS_useGMRedi = /* apply GM-Redi */
(PID.TID 0000.0001)                   F
(PID.TID 0000.0001)     ;
(PID.TID 0000.0001) PTRACERS_useDWNSLP = /* apply DOWN-SLOPE Flow */
(PID.TID 0000.0001)                   F
(PID.TID 0000.0001)     ;
(PID.TID 0000.0001) PTRACERS_useKPP = /* apply KPP scheme */
(PID.TID 0000.0001)                   T
(PID.TID 0000.0001)     ;
(PID.TID 0000.0001) PTRACERS_ref = /* Reference vertical profile */
(PID.TID 0000.0001)    24 @  0.000000000000000E+00              /* K =  1: 24 */
(PID.TID 0000.0001)     ;
(PID.TID 0000.0001) PTRACERS_EvPrRn =/* tracer conc. in Evap. & Rain */
(PID.TID 0000.0001)                 1.234567000000000E+05
(PID.TID 0000.0001)     ;
(PID.TID 0000.0001)  -----------------------------------
(PID.TID 0000.0001)  tracer number :   29
(PID.TID 0000.0001) PTRACERS_names = /* Tracer short name */
(PID.TID 0000.0001)               'Phy08'
(PID.TID 0000.0001)     ;
(PID.TID 0000.0001) PTRACERS_long_names = /* Tracer long name */
(PID.TID 0000.0001)               ''
(PID.TID 0000.0001)     ;
(PID.TID 0000.0001) PTRACERS_ioLabel = /* tracer IO Label */
(PID.TID 0000.0001)               '29'
(PID.TID 0000.0001)     ;
(PID.TID 0000.0001) PTRACERS_advScheme = /* Advection Scheme */
(PID.TID 0000.0001)                      33
(PID.TID 0000.0001)     ;
(PID.TID 0000.0001) PTRACERS_SOM_Advection = /* tracer uses SOM advection scheme */
(PID.TID 0000.0001)                   F
(PID.TID 0000.0001)     ;
(PID.TID 0000.0001) PTRACERS_ImplVertAdv = /* implicit vert. advection flag */
(PID.TID 0000.0001)                   F
(PID.TID 0000.0001)     ;
(PID.TID 0000.0001) PTRACERS_diffKh = /* Laplacian Diffusivity */
(PID.TID 0000.0001)                 0.000000000000000E+00
(PID.TID 0000.0001)     ;
(PID.TID 0000.0001) PTRACERS_diffK4 = /* Biharmonic Diffusivity */
(PID.TID 0000.0001)                 0.000000000000000E+00
(PID.TID 0000.0001)     ;
(PID.TID 0000.0001) PTRACERS_diffKrNr = /* Vertical Diffusivity */
(PID.TID 0000.0001)    24 @  1.000000000000000E-06              /* K =  1: 24 */
(PID.TID 0000.0001)     ;
(PID.TID 0000.0001) PTRACERS_useGMRedi = /* apply GM-Redi */
(PID.TID 0000.0001)                   F
(PID.TID 0000.0001)     ;
(PID.TID 0000.0001) PTRACERS_useDWNSLP = /* apply DOWN-SLOPE Flow */
(PID.TID 0000.0001)                   F
(PID.TID 0000.0001)     ;
(PID.TID 0000.0001) PTRACERS_useKPP = /* apply KPP scheme */
(PID.TID 0000.0001)                   T
(PID.TID 0000.0001)     ;
(PID.TID 0000.0001) PTRACERS_ref = /* Reference vertical profile */
(PID.TID 0000.0001)    24 @  0.000000000000000E+00              /* K =  1: 24 */
(PID.TID 0000.0001)     ;
(PID.TID 0000.0001) PTRACERS_EvPrRn =/* tracer conc. in Evap. & Rain */
(PID.TID 0000.0001)                 1.234567000000000E+05
(PID.TID 0000.0001)     ;
(PID.TID 0000.0001)  -----------------------------------
(PID.TID 0000.0001)  tracer number :   30
(PID.TID 0000.0001) PTRACERS_names = /* Tracer short name */
(PID.TID 0000.0001)               'Phy09'
(PID.TID 0000.0001)     ;
(PID.TID 0000.0001) PTRACERS_long_names = /* Tracer long name */
(PID.TID 0000.0001)               ''
(PID.TID 0000.0001)     ;
(PID.TID 0000.0001) PTRACERS_ioLabel = /* tracer IO Label */
(PID.TID 0000.0001)               '30'
(PID.TID 0000.0001)     ;
(PID.TID 0000.0001) PTRACERS_advScheme = /* Advection Scheme */
(PID.TID 0000.0001)                      33
(PID.TID 0000.0001)     ;
(PID.TID 0000.0001) PTRACERS_SOM_Advection = /* tracer uses SOM advection scheme */
(PID.TID 0000.0001)                   F
(PID.TID 0000.0001)     ;
(PID.TID 0000.0001) PTRACERS_ImplVertAdv = /* implicit vert. advection flag */
(PID.TID 0000.0001)                   F
(PID.TID 0000.0001)     ;
(PID.TID 0000.0001) PTRACERS_diffKh = /* Laplacian Diffusivity */
(PID.TID 0000.0001)                 0.000000000000000E+00
(PID.TID 0000.0001)     ;
(PID.TID 0000.0001) PTRACERS_diffK4 = /* Biharmonic Diffusivity */
(PID.TID 0000.0001)                 0.000000000000000E+00
(PID.TID 0000.0001)     ;
(PID.TID 0000.0001) PTRACERS_diffKrNr = /* Vertical Diffusivity */
(PID.TID 0000.0001)    24 @  1.000000000000000E-06              /* K =  1: 24 */
(PID.TID 0000.0001)     ;
(PID.TID 0000.0001) PTRACERS_useGMRedi = /* apply GM-Redi */
(PID.TID 0000.0001)                   F
(PID.TID 0000.0001)     ;
(PID.TID 0000.0001) PTRACERS_useDWNSLP = /* apply DOWN-SLOPE Flow */
(PID.TID 0000.0001)                   F
(PID.TID 0000.0001)     ;
(PID.TID 0000.0001) PTRACERS_useKPP = /* apply KPP scheme */
(PID.TID 0000.0001)                   T
(PID.TID 0000.0001)     ;
(PID.TID 0000.0001) PTRACERS_ref = /* Reference vertical profile */
(PID.TID 0000.0001)    24 @  0.000000000000000E+00              /* K =  1: 24 */
(PID.TID 0000.0001)     ;
(PID.TID 0000.0001) PTRACERS_EvPrRn =/* tracer conc. in Evap. & Rain */
(PID.TID 0000.0001)                 1.234567000000000E+05
(PID.TID 0000.0001)     ;
(PID.TID 0000.0001)  -----------------------------------
(PID.TID 0000.0001)  tracer number :   31
(PID.TID 0000.0001) PTRACERS_names = /* Tracer short name */
(PID.TID 0000.0001)               'Phy10'
(PID.TID 0000.0001)     ;
(PID.TID 0000.0001) PTRACERS_long_names = /* Tracer long name */
(PID.TID 0000.0001)               ''
(PID.TID 0000.0001)     ;
(PID.TID 0000.0001) PTRACERS_ioLabel = /* tracer IO Label */
(PID.TID 0000.0001)               '31'
(PID.TID 0000.0001)     ;
(PID.TID 0000.0001) PTRACERS_advScheme = /* Advection Scheme */
(PID.TID 0000.0001)                      33
(PID.TID 0000.0001)     ;
(PID.TID 0000.0001) PTRACERS_SOM_Advection = /* tracer uses SOM advection scheme */
(PID.TID 0000.0001)                   F
(PID.TID 0000.0001)     ;
(PID.TID 0000.0001) PTRACERS_ImplVertAdv = /* implicit vert. advection flag */
(PID.TID 0000.0001)                   F
(PID.TID 0000.0001)     ;
(PID.TID 0000.0001) PTRACERS_diffKh = /* Laplacian Diffusivity */
(PID.TID 0000.0001)                 0.000000000000000E+00
(PID.TID 0000.0001)     ;
(PID.TID 0000.0001) PTRACERS_diffK4 = /* Biharmonic Diffusivity */
(PID.TID 0000.0001)                 0.000000000000000E+00
(PID.TID 0000.0001)     ;
(PID.TID 0000.0001) PTRACERS_diffKrNr = /* Vertical Diffusivity */
(PID.TID 0000.0001)    24 @  1.000000000000000E-06              /* K =  1: 24 */
(PID.TID 0000.0001)     ;
(PID.TID 0000.0001) PTRACERS_useGMRedi = /* apply GM-Redi */
(PID.TID 0000.0001)                   F
(PID.TID 0000.0001)     ;
(PID.TID 0000.0001) PTRACERS_useDWNSLP = /* apply DOWN-SLOPE Flow */
(PID.TID 0000.0001)                   F
(PID.TID 0000.0001)     ;
(PID.TID 0000.0001) PTRACERS_useKPP = /* apply KPP scheme */
(PID.TID 0000.0001)                   T
(PID.TID 0000.0001)     ;
(PID.TID 0000.0001) PTRACERS_ref = /* Reference vertical profile */
(PID.TID 0000.0001)    24 @  0.000000000000000E+00              /* K =  1: 24 */
(PID.TID 0000.0001)     ;
(PID.TID 0000.0001) PTRACERS_EvPrRn =/* tracer conc. in Evap. & Rain */
(PID.TID 0000.0001)                 1.234567000000000E+05
(PID.TID 0000.0001)     ;
(PID.TID 0000.0001)  -----------------------------------
(PID.TID 0000.0001)  tracer number :   32
(PID.TID 0000.0001) PTRACERS_names = /* Tracer short name */
(PID.TID 0000.0001)               'Phy11'
(PID.TID 0000.0001)     ;
(PID.TID 0000.0001) PTRACERS_long_names = /* Tracer long name */
(PID.TID 0000.0001)               ''
(PID.TID 0000.0001)     ;
(PID.TID 0000.0001) PTRACERS_ioLabel = /* tracer IO Label */
(PID.TID 0000.0001)               '32'
(PID.TID 0000.0001)     ;
(PID.TID 0000.0001) PTRACERS_advScheme = /* Advection Scheme */
(PID.TID 0000.0001)                      33
(PID.TID 0000.0001)     ;
(PID.TID 0000.0001) PTRACERS_SOM_Advection = /* tracer uses SOM advection scheme */
(PID.TID 0000.0001)                   F
(PID.TID 0000.0001)     ;
(PID.TID 0000.0001) PTRACERS_ImplVertAdv = /* implicit vert. advection flag */
(PID.TID 0000.0001)                   F
(PID.TID 0000.0001)     ;
(PID.TID 0000.0001) PTRACERS_diffKh = /* Laplacian Diffusivity */
(PID.TID 0000.0001)                 0.000000000000000E+00
(PID.TID 0000.0001)     ;
(PID.TID 0000.0001) PTRACERS_diffK4 = /* Biharmonic Diffusivity */
(PID.TID 0000.0001)                 0.000000000000000E+00
(PID.TID 0000.0001)     ;
(PID.TID 0000.0001) PTRACERS_diffKrNr = /* Vertical Diffusivity */
(PID.TID 0000.0001)    24 @  1.000000000000000E-06              /* K =  1: 24 */
(PID.TID 0000.0001)     ;
(PID.TID 0000.0001) PTRACERS_useGMRedi = /* apply GM-Redi */
(PID.TID 0000.0001)                   F
(PID.TID 0000.0001)     ;
(PID.TID 0000.0001) PTRACERS_useDWNSLP = /* apply DOWN-SLOPE Flow */
(PID.TID 0000.0001)                   F
(PID.TID 0000.0001)     ;
(PID.TID 0000.0001) PTRACERS_useKPP = /* apply KPP scheme */
(PID.TID 0000.0001)                   T
(PID.TID 0000.0001)     ;
(PID.TID 0000.0001) PTRACERS_ref = /* Reference vertical profile */
(PID.TID 0000.0001)    24 @  0.000000000000000E+00              /* K =  1: 24 */
(PID.TID 0000.0001)     ;
(PID.TID 0000.0001) PTRACERS_EvPrRn =/* tracer conc. in Evap. & Rain */
(PID.TID 0000.0001)                 1.234567000000000E+05
(PID.TID 0000.0001)     ;
(PID.TID 0000.0001)  -----------------------------------
(PID.TID 0000.0001)  tracer number :   33
(PID.TID 0000.0001) PTRACERS_names = /* Tracer short name */
(PID.TID 0000.0001)               'Phy12'
(PID.TID 0000.0001)     ;
(PID.TID 0000.0001) PTRACERS_long_names = /* Tracer long name */
(PID.TID 0000.0001)               ''
(PID.TID 0000.0001)     ;
(PID.TID 0000.0001) PTRACERS_ioLabel = /* tracer IO Label */
(PID.TID 0000.0001)               '33'
(PID.TID 0000.0001)     ;
(PID.TID 0000.0001) PTRACERS_advScheme = /* Advection Scheme */
(PID.TID 0000.0001)                      33
(PID.TID 0000.0001)     ;
(PID.TID 0000.0001) PTRACERS_SOM_Advection = /* tracer uses SOM advection scheme */
(PID.TID 0000.0001)                   F
(PID.TID 0000.0001)     ;
(PID.TID 0000.0001) PTRACERS_ImplVertAdv = /* implicit vert. advection flag */
(PID.TID 0000.0001)                   F
(PID.TID 0000.0001)     ;
(PID.TID 0000.0001) PTRACERS_diffKh = /* Laplacian Diffusivity */
(PID.TID 0000.0001)                 0.000000000000000E+00
(PID.TID 0000.0001)     ;
(PID.TID 0000.0001) PTRACERS_diffK4 = /* Biharmonic Diffusivity */
(PID.TID 0000.0001)                 0.000000000000000E+00
(PID.TID 0000.0001)     ;
(PID.TID 0000.0001) PTRACERS_diffKrNr = /* Vertical Diffusivity */
(PID.TID 0000.0001)    24 @  1.000000000000000E-06              /* K =  1: 24 */
(PID.TID 0000.0001)     ;
(PID.TID 0000.0001) PTRACERS_useGMRedi = /* apply GM-Redi */
(PID.TID 0000.0001)                   F
(PID.TID 0000.0001)     ;
(PID.TID 0000.0001) PTRACERS_useDWNSLP = /* apply DOWN-SLOPE Flow */
(PID.TID 0000.0001)                   F
(PID.TID 0000.0001)     ;
(PID.TID 0000.0001) PTRACERS_useKPP = /* apply KPP scheme */
(PID.TID 0000.0001)                   T
(PID.TID 0000.0001)     ;
(PID.TID 0000.0001) PTRACERS_ref = /* Reference vertical profile */
(PID.TID 0000.0001)    24 @  0.000000000000000E+00              /* K =  1: 24 */
(PID.TID 0000.0001)     ;
(PID.TID 0000.0001) PTRACERS_EvPrRn =/* tracer conc. in Evap. & Rain */
(PID.TID 0000.0001)                 1.234567000000000E+05
(PID.TID 0000.0001)     ;
(PID.TID 0000.0001)  -----------------------------------
(PID.TID 0000.0001)  tracer number :   34
(PID.TID 0000.0001) PTRACERS_names = /* Tracer short name */
(PID.TID 0000.0001)               'Phy13'
(PID.TID 0000.0001)     ;
(PID.TID 0000.0001) PTRACERS_long_names = /* Tracer long name */
(PID.TID 0000.0001)               ''
(PID.TID 0000.0001)     ;
(PID.TID 0000.0001) PTRACERS_ioLabel = /* tracer IO Label */
(PID.TID 0000.0001)               '34'
(PID.TID 0000.0001)     ;
(PID.TID 0000.0001) PTRACERS_advScheme = /* Advection Scheme */
(PID.TID 0000.0001)                      33
(PID.TID 0000.0001)     ;
(PID.TID 0000.0001) PTRACERS_SOM_Advection = /* tracer uses SOM advection scheme */
(PID.TID 0000.0001)                   F
(PID.TID 0000.0001)     ;
(PID.TID 0000.0001) PTRACERS_ImplVertAdv = /* implicit vert. advection flag */
(PID.TID 0000.0001)                   F
(PID.TID 0000.0001)     ;
(PID.TID 0000.0001) PTRACERS_diffKh = /* Laplacian Diffusivity */
(PID.TID 0000.0001)                 0.000000000000000E+00
(PID.TID 0000.0001)     ;
(PID.TID 0000.0001) PTRACERS_diffK4 = /* Biharmonic Diffusivity */
(PID.TID 0000.0001)                 0.000000000000000E+00
(PID.TID 0000.0001)     ;
(PID.TID 0000.0001) PTRACERS_diffKrNr = /* Vertical Diffusivity */
(PID.TID 0000.0001)    24 @  1.000000000000000E-06              /* K =  1: 24 */
(PID.TID 0000.0001)     ;
(PID.TID 0000.0001) PTRACERS_useGMRedi = /* apply GM-Redi */
(PID.TID 0000.0001)                   F
(PID.TID 0000.0001)     ;
(PID.TID 0000.0001) PTRACERS_useDWNSLP = /* apply DOWN-SLOPE Flow */
(PID.TID 0000.0001)                   F
(PID.TID 0000.0001)     ;
(PID.TID 0000.0001) PTRACERS_useKPP = /* apply KPP scheme */
(PID.TID 0000.0001)                   T
(PID.TID 0000.0001)     ;
(PID.TID 0000.0001) PTRACERS_ref = /* Reference vertical profile */
(PID.TID 0000.0001)    24 @  0.000000000000000E+00              /* K =  1: 24 */
(PID.TID 0000.0001)     ;
(PID.TID 0000.0001) PTRACERS_EvPrRn =/* tracer conc. in Evap. & Rain */
(PID.TID 0000.0001)                 1.234567000000000E+05
(PID.TID 0000.0001)     ;
(PID.TID 0000.0001)  -----------------------------------
(PID.TID 0000.0001)  tracer number :   35
(PID.TID 0000.0001) PTRACERS_names = /* Tracer short name */
(PID.TID 0000.0001)               'Phy14'
(PID.TID 0000.0001)     ;
(PID.TID 0000.0001) PTRACERS_long_names = /* Tracer long name */
(PID.TID 0000.0001)               ''
(PID.TID 0000.0001)     ;
(PID.TID 0000.0001) PTRACERS_ioLabel = /* tracer IO Label */
(PID.TID 0000.0001)               '35'
(PID.TID 0000.0001)     ;
(PID.TID 0000.0001) PTRACERS_advScheme = /* Advection Scheme */
(PID.TID 0000.0001)                      33
(PID.TID 0000.0001)     ;
(PID.TID 0000.0001) PTRACERS_SOM_Advection = /* tracer uses SOM advection scheme */
(PID.TID 0000.0001)                   F
(PID.TID 0000.0001)     ;
(PID.TID 0000.0001) PTRACERS_ImplVertAdv = /* implicit vert. advection flag */
(PID.TID 0000.0001)                   F
(PID.TID 0000.0001)     ;
(PID.TID 0000.0001) PTRACERS_diffKh = /* Laplacian Diffusivity */
(PID.TID 0000.0001)                 0.000000000000000E+00
(PID.TID 0000.0001)     ;
(PID.TID 0000.0001) PTRACERS_diffK4 = /* Biharmonic Diffusivity */
(PID.TID 0000.0001)                 0.000000000000000E+00
(PID.TID 0000.0001)     ;
(PID.TID 0000.0001) PTRACERS_diffKrNr = /* Vertical Diffusivity */
(PID.TID 0000.0001)    24 @  1.000000000000000E-06              /* K =  1: 24 */
(PID.TID 0000.0001)     ;
(PID.TID 0000.0001) PTRACERS_useGMRedi = /* apply GM-Redi */
(PID.TID 0000.0001)                   F
(PID.TID 0000.0001)     ;
(PID.TID 0000.0001) PTRACERS_useDWNSLP = /* apply DOWN-SLOPE Flow */
(PID.TID 0000.0001)                   F
(PID.TID 0000.0001)     ;
(PID.TID 0000.0001) PTRACERS_useKPP = /* apply KPP scheme */
(PID.TID 0000.0001)                   T
(PID.TID 0000.0001)     ;
(PID.TID 0000.0001) PTRACERS_ref = /* Reference vertical profile */
(PID.TID 0000.0001)    24 @  0.000000000000000E+00              /* K =  1: 24 */
(PID.TID 0000.0001)     ;
(PID.TID 0000.0001) PTRACERS_EvPrRn =/* tracer conc. in Evap. & Rain */
(PID.TID 0000.0001)                 1.234567000000000E+05
(PID.TID 0000.0001)     ;
(PID.TID 0000.0001)  -----------------------------------
(PID.TID 0000.0001)  tracer number :   36
(PID.TID 0000.0001) PTRACERS_names = /* Tracer short name */
(PID.TID 0000.0001)               'Phy15'
(PID.TID 0000.0001)     ;
(PID.TID 0000.0001) PTRACERS_long_names = /* Tracer long name */
(PID.TID 0000.0001)               ''
(PID.TID 0000.0001)     ;
(PID.TID 0000.0001) PTRACERS_ioLabel = /* tracer IO Label */
(PID.TID 0000.0001)               '36'
(PID.TID 0000.0001)     ;
(PID.TID 0000.0001) PTRACERS_advScheme = /* Advection Scheme */
(PID.TID 0000.0001)                      33
(PID.TID 0000.0001)     ;
(PID.TID 0000.0001) PTRACERS_SOM_Advection = /* tracer uses SOM advection scheme */
(PID.TID 0000.0001)                   F
(PID.TID 0000.0001)     ;
(PID.TID 0000.0001) PTRACERS_ImplVertAdv = /* implicit vert. advection flag */
(PID.TID 0000.0001)                   F
(PID.TID 0000.0001)     ;
(PID.TID 0000.0001) PTRACERS_diffKh = /* Laplacian Diffusivity */
(PID.TID 0000.0001)                 0.000000000000000E+00
(PID.TID 0000.0001)     ;
(PID.TID 0000.0001) PTRACERS_diffK4 = /* Biharmonic Diffusivity */
(PID.TID 0000.0001)                 0.000000000000000E+00
(PID.TID 0000.0001)     ;
(PID.TID 0000.0001) PTRACERS_diffKrNr = /* Vertical Diffusivity */
(PID.TID 0000.0001)    24 @  1.000000000000000E-06              /* K =  1: 24 */
(PID.TID 0000.0001)     ;
(PID.TID 0000.0001) PTRACERS_useGMRedi = /* apply GM-Redi */
(PID.TID 0000.0001)                   F
(PID.TID 0000.0001)     ;
(PID.TID 0000.0001) PTRACERS_useDWNSLP = /* apply DOWN-SLOPE Flow */
(PID.TID 0000.0001)                   F
(PID.TID 0000.0001)     ;
(PID.TID 0000.0001) PTRACERS_useKPP = /* apply KPP scheme */
(PID.TID 0000.0001)                   T
(PID.TID 0000.0001)     ;
(PID.TID 0000.0001) PTRACERS_ref = /* Reference vertical profile */
(PID.TID 0000.0001)    24 @  0.000000000000000E+00              /* K =  1: 24 */
(PID.TID 0000.0001)     ;
(PID.TID 0000.0001) PTRACERS_EvPrRn =/* tracer conc. in Evap. & Rain */
(PID.TID 0000.0001)                 1.234567000000000E+05
(PID.TID 0000.0001)     ;
(PID.TID 0000.0001)  -----------------------------------
(PID.TID 0000.0001)  tracer number :   37
(PID.TID 0000.0001) PTRACERS_names = /* Tracer short name */
(PID.TID 0000.0001)               'Phy16'
(PID.TID 0000.0001)     ;
(PID.TID 0000.0001) PTRACERS_long_names = /* Tracer long name */
(PID.TID 0000.0001)               ''
(PID.TID 0000.0001)     ;
(PID.TID 0000.0001) PTRACERS_ioLabel = /* tracer IO Label */
(PID.TID 0000.0001)               '37'
(PID.TID 0000.0001)     ;
(PID.TID 0000.0001) PTRACERS_advScheme = /* Advection Scheme */
(PID.TID 0000.0001)                      33
(PID.TID 0000.0001)     ;
(PID.TID 0000.0001) PTRACERS_SOM_Advection = /* tracer uses SOM advection scheme */
(PID.TID 0000.0001)                   F
(PID.TID 0000.0001)     ;
(PID.TID 0000.0001) PTRACERS_ImplVertAdv = /* implicit vert. advection flag */
(PID.TID 0000.0001)                   F
(PID.TID 0000.0001)     ;
(PID.TID 0000.0001) PTRACERS_diffKh = /* Laplacian Diffusivity */
(PID.TID 0000.0001)                 0.000000000000000E+00
(PID.TID 0000.0001)     ;
(PID.TID 0000.0001) PTRACERS_diffK4 = /* Biharmonic Diffusivity */
(PID.TID 0000.0001)                 0.000000000000000E+00
(PID.TID 0000.0001)     ;
(PID.TID 0000.0001) PTRACERS_diffKrNr = /* Vertical Diffusivity */
(PID.TID 0000.0001)    24 @  1.000000000000000E-06              /* K =  1: 24 */
(PID.TID 0000.0001)     ;
(PID.TID 0000.0001) PTRACERS_useGMRedi = /* apply GM-Redi */
(PID.TID 0000.0001)                   F
(PID.TID 0000.0001)     ;
(PID.TID 0000.0001) PTRACERS_useDWNSLP = /* apply DOWN-SLOPE Flow */
(PID.TID 0000.0001)                   F
(PID.TID 0000.0001)     ;
(PID.TID 0000.0001) PTRACERS_useKPP = /* apply KPP scheme */
(PID.TID 0000.0001)                   T
(PID.TID 0000.0001)     ;
(PID.TID 0000.0001) PTRACERS_ref = /* Reference vertical profile */
(PID.TID 0000.0001)    24 @  0.000000000000000E+00              /* K =  1: 24 */
(PID.TID 0000.0001)     ;
(PID.TID 0000.0001) PTRACERS_EvPrRn =/* tracer conc. in Evap. & Rain */
(PID.TID 0000.0001)                 1.234567000000000E+05
(PID.TID 0000.0001)     ;
(PID.TID 0000.0001)  -----------------------------------
(PID.TID 0000.0001)  tracer number :   38
(PID.TID 0000.0001) PTRACERS_names = /* Tracer short name */
(PID.TID 0000.0001)               'Phy17'
(PID.TID 0000.0001)     ;
(PID.TID 0000.0001) PTRACERS_long_names = /* Tracer long name */
(PID.TID 0000.0001)               ''
(PID.TID 0000.0001)     ;
(PID.TID 0000.0001) PTRACERS_ioLabel = /* tracer IO Label */
(PID.TID 0000.0001)               '38'
(PID.TID 0000.0001)     ;
(PID.TID 0000.0001) PTRACERS_advScheme = /* Advection Scheme */
(PID.TID 0000.0001)                      33
(PID.TID 0000.0001)     ;
(PID.TID 0000.0001) PTRACERS_SOM_Advection = /* tracer uses SOM advection scheme */
(PID.TID 0000.0001)                   F
(PID.TID 0000.0001)     ;
(PID.TID 0000.0001) PTRACERS_ImplVertAdv = /* implicit vert. advection flag */
(PID.TID 0000.0001)                   F
(PID.TID 0000.0001)     ;
(PID.TID 0000.0001) PTRACERS_diffKh = /* Laplacian Diffusivity */
(PID.TID 0000.0001)                 0.000000000000000E+00
(PID.TID 0000.0001)     ;
(PID.TID 0000.0001) PTRACERS_diffK4 = /* Biharmonic Diffusivity */
(PID.TID 0000.0001)                 0.000000000000000E+00
(PID.TID 0000.0001)     ;
(PID.TID 0000.0001) PTRACERS_diffKrNr = /* Vertical Diffusivity */
(PID.TID 0000.0001)    24 @  1.000000000000000E-06              /* K =  1: 24 */
(PID.TID 0000.0001)     ;
(PID.TID 0000.0001) PTRACERS_useGMRedi = /* apply GM-Redi */
(PID.TID 0000.0001)                   F
(PID.TID 0000.0001)     ;
(PID.TID 0000.0001) PTRACERS_useDWNSLP = /* apply DOWN-SLOPE Flow */
(PID.TID 0000.0001)                   F
(PID.TID 0000.0001)     ;
(PID.TID 0000.0001) PTRACERS_useKPP = /* apply KPP scheme */
(PID.TID 0000.0001)                   T
(PID.TID 0000.0001)     ;
(PID.TID 0000.0001) PTRACERS_ref = /* Reference vertical profile */
(PID.TID 0000.0001)    24 @  0.000000000000000E+00              /* K =  1: 24 */
(PID.TID 0000.0001)     ;
(PID.TID 0000.0001) PTRACERS_EvPrRn =/* tracer conc. in Evap. & Rain */
(PID.TID 0000.0001)                 1.234567000000000E+05
(PID.TID 0000.0001)     ;
(PID.TID 0000.0001)  -----------------------------------
(PID.TID 0000.0001)  tracer number :   39
(PID.TID 0000.0001) PTRACERS_names = /* Tracer short name */
(PID.TID 0000.0001)               'Phy18'
(PID.TID 0000.0001)     ;
(PID.TID 0000.0001) PTRACERS_long_names = /* Tracer long name */
(PID.TID 0000.0001)               ''
(PID.TID 0000.0001)     ;
(PID.TID 0000.0001) PTRACERS_ioLabel = /* tracer IO Label */
(PID.TID 0000.0001)               '39'
(PID.TID 0000.0001)     ;
(PID.TID 0000.0001) PTRACERS_advScheme = /* Advection Scheme */
(PID.TID 0000.0001)                      33
(PID.TID 0000.0001)     ;
(PID.TID 0000.0001) PTRACERS_SOM_Advection = /* tracer uses SOM advection scheme */
(PID.TID 0000.0001)                   F
(PID.TID 0000.0001)     ;
(PID.TID 0000.0001) PTRACERS_ImplVertAdv = /* implicit vert. advection flag */
(PID.TID 0000.0001)                   F
(PID.TID 0000.0001)     ;
(PID.TID 0000.0001) PTRACERS_diffKh = /* Laplacian Diffusivity */
(PID.TID 0000.0001)                 0.000000000000000E+00
(PID.TID 0000.0001)     ;
(PID.TID 0000.0001) PTRACERS_diffK4 = /* Biharmonic Diffusivity */
(PID.TID 0000.0001)                 0.000000000000000E+00
(PID.TID 0000.0001)     ;
(PID.TID 0000.0001) PTRACERS_diffKrNr = /* Vertical Diffusivity */
(PID.TID 0000.0001)    24 @  1.000000000000000E-06              /* K =  1: 24 */
(PID.TID 0000.0001)     ;
(PID.TID 0000.0001) PTRACERS_useGMRedi = /* apply GM-Redi */
(PID.TID 0000.0001)                   F
(PID.TID 0000.0001)     ;
(PID.TID 0000.0001) PTRACERS_useDWNSLP = /* apply DOWN-SLOPE Flow */
(PID.TID 0000.0001)                   F
(PID.TID 0000.0001)     ;
(PID.TID 0000.0001) PTRACERS_useKPP = /* apply KPP scheme */
(PID.TID 0000.0001)                   T
(PID.TID 0000.0001)     ;
(PID.TID 0000.0001) PTRACERS_ref = /* Reference vertical profile */
(PID.TID 0000.0001)    24 @  0.000000000000000E+00              /* K =  1: 24 */
(PID.TID 0000.0001)     ;
(PID.TID 0000.0001) PTRACERS_EvPrRn =/* tracer conc. in Evap. & Rain */
(PID.TID 0000.0001)                 1.234567000000000E+05
(PID.TID 0000.0001)     ;
(PID.TID 0000.0001)  -----------------------------------
(PID.TID 0000.0001)  tracer number :   40
(PID.TID 0000.0001) PTRACERS_names = /* Tracer short name */
(PID.TID 0000.0001)               'Phy19'
(PID.TID 0000.0001)     ;
(PID.TID 0000.0001) PTRACERS_long_names = /* Tracer long name */
(PID.TID 0000.0001)               ''
(PID.TID 0000.0001)     ;
(PID.TID 0000.0001) PTRACERS_ioLabel = /* tracer IO Label */
(PID.TID 0000.0001)               '40'
(PID.TID 0000.0001)     ;
(PID.TID 0000.0001) PTRACERS_advScheme = /* Advection Scheme */
(PID.TID 0000.0001)                      33
(PID.TID 0000.0001)     ;
(PID.TID 0000.0001) PTRACERS_SOM_Advection = /* tracer uses SOM advection scheme */
(PID.TID 0000.0001)                   F
(PID.TID 0000.0001)     ;
(PID.TID 0000.0001) PTRACERS_ImplVertAdv = /* implicit vert. advection flag */
(PID.TID 0000.0001)                   F
(PID.TID 0000.0001)     ;
(PID.TID 0000.0001) PTRACERS_diffKh = /* Laplacian Diffusivity */
(PID.TID 0000.0001)                 0.000000000000000E+00
(PID.TID 0000.0001)     ;
(PID.TID 0000.0001) PTRACERS_diffK4 = /* Biharmonic Diffusivity */
(PID.TID 0000.0001)                 0.000000000000000E+00
(PID.TID 0000.0001)     ;
(PID.TID 0000.0001) PTRACERS_diffKrNr = /* Vertical Diffusivity */
(PID.TID 0000.0001)    24 @  1.000000000000000E-06              /* K =  1: 24 */
(PID.TID 0000.0001)     ;
(PID.TID 0000.0001) PTRACERS_useGMRedi = /* apply GM-Redi */
(PID.TID 0000.0001)                   F
(PID.TID 0000.0001)     ;
(PID.TID 0000.0001) PTRACERS_useDWNSLP = /* apply DOWN-SLOPE Flow */
(PID.TID 0000.0001)                   F
(PID.TID 0000.0001)     ;
(PID.TID 0000.0001) PTRACERS_useKPP = /* apply KPP scheme */
(PID.TID 0000.0001)                   T
(PID.TID 0000.0001)     ;
(PID.TID 0000.0001) PTRACERS_ref = /* Reference vertical profile */
(PID.TID 0000.0001)    24 @  0.000000000000000E+00              /* K =  1: 24 */
(PID.TID 0000.0001)     ;
(PID.TID 0000.0001) PTRACERS_EvPrRn =/* tracer conc. in Evap. & Rain */
(PID.TID 0000.0001)                 1.234567000000000E+05
(PID.TID 0000.0001)     ;
(PID.TID 0000.0001)  -----------------------------------
(PID.TID 0000.0001)  tracer number :   41
(PID.TID 0000.0001) PTRACERS_names = /* Tracer short name */
(PID.TID 0000.0001)               'Phy20'
(PID.TID 0000.0001)     ;
(PID.TID 0000.0001) PTRACERS_long_names = /* Tracer long name */
(PID.TID 0000.0001)               ''
(PID.TID 0000.0001)     ;
(PID.TID 0000.0001) PTRACERS_ioLabel = /* tracer IO Label */
(PID.TID 0000.0001)               '41'
(PID.TID 0000.0001)     ;
(PID.TID 0000.0001) PTRACERS_advScheme = /* Advection Scheme */
(PID.TID 0000.0001)                      33
(PID.TID 0000.0001)     ;
(PID.TID 0000.0001) PTRACERS_SOM_Advection = /* tracer uses SOM advection scheme */
(PID.TID 0000.0001)                   F
(PID.TID 0000.0001)     ;
(PID.TID 0000.0001) PTRACERS_ImplVertAdv = /* implicit vert. advection flag */
(PID.TID 0000.0001)                   F
(PID.TID 0000.0001)     ;
(PID.TID 0000.0001) PTRACERS_diffKh = /* Laplacian Diffusivity */
(PID.TID 0000.0001)                 0.000000000000000E+00
(PID.TID 0000.0001)     ;
(PID.TID 0000.0001) PTRACERS_diffK4 = /* Biharmonic Diffusivity */
(PID.TID 0000.0001)                 0.000000000000000E+00
(PID.TID 0000.0001)     ;
(PID.TID 0000.0001) PTRACERS_diffKrNr = /* Vertical Diffusivity */
(PID.TID 0000.0001)    24 @  1.000000000000000E-06              /* K =  1: 24 */
(PID.TID 0000.0001)     ;
(PID.TID 0000.0001) PTRACERS_useGMRedi = /* apply GM-Redi */
(PID.TID 0000.0001)                   F
(PID.TID 0000.0001)     ;
(PID.TID 0000.0001) PTRACERS_useDWNSLP = /* apply DOWN-SLOPE Flow */
(PID.TID 0000.0001)                   F
(PID.TID 0000.0001)     ;
(PID.TID 0000.0001) PTRACERS_useKPP = /* apply KPP scheme */
(PID.TID 0000.0001)                   T
(PID.TID 0000.0001)     ;
(PID.TID 0000.0001) PTRACERS_ref = /* Reference vertical profile */
(PID.TID 0000.0001)    24 @  0.000000000000000E+00              /* K =  1: 24 */
(PID.TID 0000.0001)     ;
(PID.TID 0000.0001) PTRACERS_EvPrRn =/* tracer conc. in Evap. & Rain */
(PID.TID 0000.0001)                 1.234567000000000E+05
(PID.TID 0000.0001)     ;
(PID.TID 0000.0001)  -----------------------------------
(PID.TID 0000.0001)  tracer number :   42
(PID.TID 0000.0001) PTRACERS_names = /* Tracer short name */
(PID.TID 0000.0001)               'Phy21'
(PID.TID 0000.0001)     ;
(PID.TID 0000.0001) PTRACERS_long_names = /* Tracer long name */
(PID.TID 0000.0001)               ''
(PID.TID 0000.0001)     ;
(PID.TID 0000.0001) PTRACERS_ioLabel = /* tracer IO Label */
(PID.TID 0000.0001)               '42'
(PID.TID 0000.0001)     ;
(PID.TID 0000.0001) PTRACERS_advScheme = /* Advection Scheme */
(PID.TID 0000.0001)                      33
(PID.TID 0000.0001)     ;
(PID.TID 0000.0001) PTRACERS_SOM_Advection = /* tracer uses SOM advection scheme */
(PID.TID 0000.0001)                   F
(PID.TID 0000.0001)     ;
(PID.TID 0000.0001) PTRACERS_ImplVertAdv = /* implicit vert. advection flag */
(PID.TID 0000.0001)                   F
(PID.TID 0000.0001)     ;
(PID.TID 0000.0001) PTRACERS_diffKh = /* Laplacian Diffusivity */
(PID.TID 0000.0001)                 0.000000000000000E+00
(PID.TID 0000.0001)     ;
(PID.TID 0000.0001) PTRACERS_diffK4 = /* Biharmonic Diffusivity */
(PID.TID 0000.0001)                 0.000000000000000E+00
(PID.TID 0000.0001)     ;
(PID.TID 0000.0001) PTRACERS_diffKrNr = /* Vertical Diffusivity */
(PID.TID 0000.0001)    24 @  1.000000000000000E-06              /* K =  1: 24 */
(PID.TID 0000.0001)     ;
(PID.TID 0000.0001) PTRACERS_useGMRedi = /* apply GM-Redi */
(PID.TID 0000.0001)                   F
(PID.TID 0000.0001)     ;
(PID.TID 0000.0001) PTRACERS_useDWNSLP = /* apply DOWN-SLOPE Flow */
(PID.TID 0000.0001)                   F
(PID.TID 0000.0001)     ;
(PID.TID 0000.0001) PTRACERS_useKPP = /* apply KPP scheme */
(PID.TID 0000.0001)                   T
(PID.TID 0000.0001)     ;
(PID.TID 0000.0001) PTRACERS_ref = /* Reference vertical profile */
(PID.TID 0000.0001)    24 @  0.000000000000000E+00              /* K =  1: 24 */
(PID.TID 0000.0001)     ;
(PID.TID 0000.0001) PTRACERS_EvPrRn =/* tracer conc. in Evap. & Rain */
(PID.TID 0000.0001)                 1.234567000000000E+05
(PID.TID 0000.0001)     ;
(PID.TID 0000.0001)  -----------------------------------
(PID.TID 0000.0001)  tracer number :   43
(PID.TID 0000.0001) PTRACERS_names = /* Tracer short name */
(PID.TID 0000.0001)               'Phy22'
(PID.TID 0000.0001)     ;
(PID.TID 0000.0001) PTRACERS_long_names = /* Tracer long name */
(PID.TID 0000.0001)               ''
(PID.TID 0000.0001)     ;
(PID.TID 0000.0001) PTRACERS_ioLabel = /* tracer IO Label */
(PID.TID 0000.0001)               '43'
(PID.TID 0000.0001)     ;
(PID.TID 0000.0001) PTRACERS_advScheme = /* Advection Scheme */
(PID.TID 0000.0001)                      33
(PID.TID 0000.0001)     ;
(PID.TID 0000.0001) PTRACERS_SOM_Advection = /* tracer uses SOM advection scheme */
(PID.TID 0000.0001)                   F
(PID.TID 0000.0001)     ;
(PID.TID 0000.0001) PTRACERS_ImplVertAdv = /* implicit vert. advection flag */
(PID.TID 0000.0001)                   F
(PID.TID 0000.0001)     ;
(PID.TID 0000.0001) PTRACERS_diffKh = /* Laplacian Diffusivity */
(PID.TID 0000.0001)                 0.000000000000000E+00
(PID.TID 0000.0001)     ;
(PID.TID 0000.0001) PTRACERS_diffK4 = /* Biharmonic Diffusivity */
(PID.TID 0000.0001)                 0.000000000000000E+00
(PID.TID 0000.0001)     ;
(PID.TID 0000.0001) PTRACERS_diffKrNr = /* Vertical Diffusivity */
(PID.TID 0000.0001)    24 @  1.000000000000000E-06              /* K =  1: 24 */
(PID.TID 0000.0001)     ;
(PID.TID 0000.0001) PTRACERS_useGMRedi = /* apply GM-Redi */
(PID.TID 0000.0001)                   F
(PID.TID 0000.0001)     ;
(PID.TID 0000.0001) PTRACERS_useDWNSLP = /* apply DOWN-SLOPE Flow */
(PID.TID 0000.0001)                   F
(PID.TID 0000.0001)     ;
(PID.TID 0000.0001) PTRACERS_useKPP = /* apply KPP scheme */
(PID.TID 0000.0001)                   T
(PID.TID 0000.0001)     ;
(PID.TID 0000.0001) PTRACERS_ref = /* Reference vertical profile */
(PID.TID 0000.0001)    24 @  0.000000000000000E+00              /* K =  1: 24 */
(PID.TID 0000.0001)     ;
(PID.TID 0000.0001) PTRACERS_EvPrRn =/* tracer conc. in Evap. & Rain */
(PID.TID 0000.0001)                 1.234567000000000E+05
(PID.TID 0000.0001)     ;
(PID.TID 0000.0001)  -----------------------------------
(PID.TID 0000.0001)  tracer number :   44
(PID.TID 0000.0001) PTRACERS_names = /* Tracer short name */
(PID.TID 0000.0001)               'Phy23'
(PID.TID 0000.0001)     ;
(PID.TID 0000.0001) PTRACERS_long_names = /* Tracer long name */
(PID.TID 0000.0001)               ''
(PID.TID 0000.0001)     ;
(PID.TID 0000.0001) PTRACERS_ioLabel = /* tracer IO Label */
(PID.TID 0000.0001)               '44'
(PID.TID 0000.0001)     ;
(PID.TID 0000.0001) PTRACERS_advScheme = /* Advection Scheme */
(PID.TID 0000.0001)                      33
(PID.TID 0000.0001)     ;
(PID.TID 0000.0001) PTRACERS_SOM_Advection = /* tracer uses SOM advection scheme */
(PID.TID 0000.0001)                   F
(PID.TID 0000.0001)     ;
(PID.TID 0000.0001) PTRACERS_ImplVertAdv = /* implicit vert. advection flag */
(PID.TID 0000.0001)                   F
(PID.TID 0000.0001)     ;
(PID.TID 0000.0001) PTRACERS_diffKh = /* Laplacian Diffusivity */
(PID.TID 0000.0001)                 0.000000000000000E+00
(PID.TID 0000.0001)     ;
(PID.TID 0000.0001) PTRACERS_diffK4 = /* Biharmonic Diffusivity */
(PID.TID 0000.0001)                 0.000000000000000E+00
(PID.TID 0000.0001)     ;
(PID.TID 0000.0001) PTRACERS_diffKrNr = /* Vertical Diffusivity */
(PID.TID 0000.0001)    24 @  1.000000000000000E-06              /* K =  1: 24 */
(PID.TID 0000.0001)     ;
(PID.TID 0000.0001) PTRACERS_useGMRedi = /* apply GM-Redi */
(PID.TID 0000.0001)                   F
(PID.TID 0000.0001)     ;
(PID.TID 0000.0001) PTRACERS_useDWNSLP = /* apply DOWN-SLOPE Flow */
(PID.TID 0000.0001)                   F
(PID.TID 0000.0001)     ;
(PID.TID 0000.0001) PTRACERS_useKPP = /* apply KPP scheme */
(PID.TID 0000.0001)                   T
(PID.TID 0000.0001)     ;
(PID.TID 0000.0001) PTRACERS_ref = /* Reference vertical profile */
(PID.TID 0000.0001)    24 @  0.000000000000000E+00              /* K =  1: 24 */
(PID.TID 0000.0001)     ;
(PID.TID 0000.0001) PTRACERS_EvPrRn =/* tracer conc. in Evap. & Rain */
(PID.TID 0000.0001)                 1.234567000000000E+05
(PID.TID 0000.0001)     ;
(PID.TID 0000.0001)  -----------------------------------
(PID.TID 0000.0001)  tracer number :   45
(PID.TID 0000.0001) PTRACERS_names = /* Tracer short name */
(PID.TID 0000.0001)               'Phy24'
(PID.TID 0000.0001)     ;
(PID.TID 0000.0001) PTRACERS_long_names = /* Tracer long name */
(PID.TID 0000.0001)               ''
(PID.TID 0000.0001)     ;
(PID.TID 0000.0001) PTRACERS_ioLabel = /* tracer IO Label */
(PID.TID 0000.0001)               '45'
(PID.TID 0000.0001)     ;
(PID.TID 0000.0001) PTRACERS_advScheme = /* Advection Scheme */
(PID.TID 0000.0001)                      33
(PID.TID 0000.0001)     ;
(PID.TID 0000.0001) PTRACERS_SOM_Advection = /* tracer uses SOM advection scheme */
(PID.TID 0000.0001)                   F
(PID.TID 0000.0001)     ;
(PID.TID 0000.0001) PTRACERS_ImplVertAdv = /* implicit vert. advection flag */
(PID.TID 0000.0001)                   F
(PID.TID 0000.0001)     ;
(PID.TID 0000.0001) PTRACERS_diffKh = /* Laplacian Diffusivity */
(PID.TID 0000.0001)                 0.000000000000000E+00
(PID.TID 0000.0001)     ;
(PID.TID 0000.0001) PTRACERS_diffK4 = /* Biharmonic Diffusivity */
(PID.TID 0000.0001)                 0.000000000000000E+00
(PID.TID 0000.0001)     ;
(PID.TID 0000.0001) PTRACERS_diffKrNr = /* Vertical Diffusivity */
(PID.TID 0000.0001)    24 @  1.000000000000000E-06              /* K =  1: 24 */
(PID.TID 0000.0001)     ;
(PID.TID 0000.0001) PTRACERS_useGMRedi = /* apply GM-Redi */
(PID.TID 0000.0001)                   F
(PID.TID 0000.0001)     ;
(PID.TID 0000.0001) PTRACERS_useDWNSLP = /* apply DOWN-SLOPE Flow */
(PID.TID 0000.0001)                   F
(PID.TID 0000.0001)     ;
(PID.TID 0000.0001) PTRACERS_useKPP = /* apply KPP scheme */
(PID.TID 0000.0001)                   T
(PID.TID 0000.0001)     ;
(PID.TID 0000.0001) PTRACERS_ref = /* Reference vertical profile */
(PID.TID 0000.0001)    24 @  0.000000000000000E+00              /* K =  1: 24 */
(PID.TID 0000.0001)     ;
(PID.TID 0000.0001) PTRACERS_EvPrRn =/* tracer conc. in Evap. & Rain */
(PID.TID 0000.0001)                 1.234567000000000E+05
(PID.TID 0000.0001)     ;
(PID.TID 0000.0001)  -----------------------------------
(PID.TID 0000.0001)  tracer number :   46
(PID.TID 0000.0001) PTRACERS_names = /* Tracer short name */
(PID.TID 0000.0001)               'Phy25'
(PID.TID 0000.0001)     ;
(PID.TID 0000.0001) PTRACERS_long_names = /* Tracer long name */
(PID.TID 0000.0001)               ''
(PID.TID 0000.0001)     ;
(PID.TID 0000.0001) PTRACERS_ioLabel = /* tracer IO Label */
(PID.TID 0000.0001)               '46'
(PID.TID 0000.0001)     ;
(PID.TID 0000.0001) PTRACERS_advScheme = /* Advection Scheme */
(PID.TID 0000.0001)                      33
(PID.TID 0000.0001)     ;
(PID.TID 0000.0001) PTRACERS_SOM_Advection = /* tracer uses SOM advection scheme */
(PID.TID 0000.0001)                   F
(PID.TID 0000.0001)     ;
(PID.TID 0000.0001) PTRACERS_ImplVertAdv = /* implicit vert. advection flag */
(PID.TID 0000.0001)                   F
(PID.TID 0000.0001)     ;
(PID.TID 0000.0001) PTRACERS_diffKh = /* Laplacian Diffusivity */
(PID.TID 0000.0001)                 0.000000000000000E+00
(PID.TID 0000.0001)     ;
(PID.TID 0000.0001) PTRACERS_diffK4 = /* Biharmonic Diffusivity */
(PID.TID 0000.0001)                 0.000000000000000E+00
(PID.TID 0000.0001)     ;
(PID.TID 0000.0001) PTRACERS_diffKrNr = /* Vertical Diffusivity */
(PID.TID 0000.0001)    24 @  1.000000000000000E-06              /* K =  1: 24 */
(PID.TID 0000.0001)     ;
(PID.TID 0000.0001) PTRACERS_useGMRedi = /* apply GM-Redi */
(PID.TID 0000.0001)                   F
(PID.TID 0000.0001)     ;
(PID.TID 0000.0001) PTRACERS_useDWNSLP = /* apply DOWN-SLOPE Flow */
(PID.TID 0000.0001)                   F
(PID.TID 0000.0001)     ;
(PID.TID 0000.0001) PTRACERS_useKPP = /* apply KPP scheme */
(PID.TID 0000.0001)                   T
(PID.TID 0000.0001)     ;
(PID.TID 0000.0001) PTRACERS_ref = /* Reference vertical profile */
(PID.TID 0000.0001)    24 @  0.000000000000000E+00              /* K =  1: 24 */
(PID.TID 0000.0001)     ;
(PID.TID 0000.0001) PTRACERS_EvPrRn =/* tracer conc. in Evap. & Rain */
(PID.TID 0000.0001)                 1.234567000000000E+05
(PID.TID 0000.0001)     ;
(PID.TID 0000.0001)  -----------------------------------
(PID.TID 0000.0001)  tracer number :   47
(PID.TID 0000.0001) PTRACERS_names = /* Tracer short name */
(PID.TID 0000.0001)               'Phy26'
(PID.TID 0000.0001)     ;
(PID.TID 0000.0001) PTRACERS_long_names = /* Tracer long name */
(PID.TID 0000.0001)               ''
(PID.TID 0000.0001)     ;
(PID.TID 0000.0001) PTRACERS_ioLabel = /* tracer IO Label */
(PID.TID 0000.0001)               '47'
(PID.TID 0000.0001)     ;
(PID.TID 0000.0001) PTRACERS_advScheme = /* Advection Scheme */
(PID.TID 0000.0001)                      33
(PID.TID 0000.0001)     ;
(PID.TID 0000.0001) PTRACERS_SOM_Advection = /* tracer uses SOM advection scheme */
(PID.TID 0000.0001)                   F
(PID.TID 0000.0001)     ;
(PID.TID 0000.0001) PTRACERS_ImplVertAdv = /* implicit vert. advection flag */
(PID.TID 0000.0001)                   F
(PID.TID 0000.0001)     ;
(PID.TID 0000.0001) PTRACERS_diffKh = /* Laplacian Diffusivity */
(PID.TID 0000.0001)                 0.000000000000000E+00
(PID.TID 0000.0001)     ;
(PID.TID 0000.0001) PTRACERS_diffK4 = /* Biharmonic Diffusivity */
(PID.TID 0000.0001)                 0.000000000000000E+00
(PID.TID 0000.0001)     ;
(PID.TID 0000.0001) PTRACERS_diffKrNr = /* Vertical Diffusivity */
(PID.TID 0000.0001)    24 @  1.000000000000000E-06              /* K =  1: 24 */
(PID.TID 0000.0001)     ;
(PID.TID 0000.0001) PTRACERS_useGMRedi = /* apply GM-Redi */
(PID.TID 0000.0001)                   F
(PID.TID 0000.0001)     ;
(PID.TID 0000.0001) PTRACERS_useDWNSLP = /* apply DOWN-SLOPE Flow */
(PID.TID 0000.0001)                   F
(PID.TID 0000.0001)     ;
(PID.TID 0000.0001) PTRACERS_useKPP = /* apply KPP scheme */
(PID.TID 0000.0001)                   T
(PID.TID 0000.0001)     ;
(PID.TID 0000.0001) PTRACERS_ref = /* Reference vertical profile */
(PID.TID 0000.0001)    24 @  0.000000000000000E+00              /* K =  1: 24 */
(PID.TID 0000.0001)     ;
(PID.TID 0000.0001) PTRACERS_EvPrRn =/* tracer conc. in Evap. & Rain */
(PID.TID 0000.0001)                 1.234567000000000E+05
(PID.TID 0000.0001)     ;
(PID.TID 0000.0001)  -----------------------------------
(PID.TID 0000.0001)  tracer number :   48
(PID.TID 0000.0001) PTRACERS_names = /* Tracer short name */
(PID.TID 0000.0001)               'Phy27'
(PID.TID 0000.0001)     ;
(PID.TID 0000.0001) PTRACERS_long_names = /* Tracer long name */
(PID.TID 0000.0001)               ''
(PID.TID 0000.0001)     ;
(PID.TID 0000.0001) PTRACERS_ioLabel = /* tracer IO Label */
(PID.TID 0000.0001)               '48'
(PID.TID 0000.0001)     ;
(PID.TID 0000.0001) PTRACERS_advScheme = /* Advection Scheme */
(PID.TID 0000.0001)                      33
(PID.TID 0000.0001)     ;
(PID.TID 0000.0001) PTRACERS_SOM_Advection = /* tracer uses SOM advection scheme */
(PID.TID 0000.0001)                   F
(PID.TID 0000.0001)     ;
(PID.TID 0000.0001) PTRACERS_ImplVertAdv = /* implicit vert. advection flag */
(PID.TID 0000.0001)                   F
(PID.TID 0000.0001)     ;
(PID.TID 0000.0001) PTRACERS_diffKh = /* Laplacian Diffusivity */
(PID.TID 0000.0001)                 0.000000000000000E+00
(PID.TID 0000.0001)     ;
(PID.TID 0000.0001) PTRACERS_diffK4 = /* Biharmonic Diffusivity */
(PID.TID 0000.0001)                 0.000000000000000E+00
(PID.TID 0000.0001)     ;
(PID.TID 0000.0001) PTRACERS_diffKrNr = /* Vertical Diffusivity */
(PID.TID 0000.0001)    24 @  1.000000000000000E-06              /* K =  1: 24 */
(PID.TID 0000.0001)     ;
(PID.TID 0000.0001) PTRACERS_useGMRedi = /* apply GM-Redi */
(PID.TID 0000.0001)                   F
(PID.TID 0000.0001)     ;
(PID.TID 0000.0001) PTRACERS_useDWNSLP = /* apply DOWN-SLOPE Flow */
(PID.TID 0000.0001)                   F
(PID.TID 0000.0001)     ;
(PID.TID 0000.0001) PTRACERS_useKPP = /* apply KPP scheme */
(PID.TID 0000.0001)                   T
(PID.TID 0000.0001)     ;
(PID.TID 0000.0001) PTRACERS_ref = /* Reference vertical profile */
(PID.TID 0000.0001)    24 @  0.000000000000000E+00              /* K =  1: 24 */
(PID.TID 0000.0001)     ;
(PID.TID 0000.0001) PTRACERS_EvPrRn =/* tracer conc. in Evap. & Rain */
(PID.TID 0000.0001)                 1.234567000000000E+05
(PID.TID 0000.0001)     ;
(PID.TID 0000.0001)  -----------------------------------
(PID.TID 0000.0001)  tracer number :   49
(PID.TID 0000.0001) PTRACERS_names = /* Tracer short name */
(PID.TID 0000.0001)               'Phy28'
(PID.TID 0000.0001)     ;
(PID.TID 0000.0001) PTRACERS_long_names = /* Tracer long name */
(PID.TID 0000.0001)               ''
(PID.TID 0000.0001)     ;
(PID.TID 0000.0001) PTRACERS_ioLabel = /* tracer IO Label */
(PID.TID 0000.0001)               '49'
(PID.TID 0000.0001)     ;
(PID.TID 0000.0001) PTRACERS_advScheme = /* Advection Scheme */
(PID.TID 0000.0001)                      33
(PID.TID 0000.0001)     ;
(PID.TID 0000.0001) PTRACERS_SOM_Advection = /* tracer uses SOM advection scheme */
(PID.TID 0000.0001)                   F
(PID.TID 0000.0001)     ;
(PID.TID 0000.0001) PTRACERS_ImplVertAdv = /* implicit vert. advection flag */
(PID.TID 0000.0001)                   F
(PID.TID 0000.0001)     ;
(PID.TID 0000.0001) PTRACERS_diffKh = /* Laplacian Diffusivity */
(PID.TID 0000.0001)                 0.000000000000000E+00
(PID.TID 0000.0001)     ;
(PID.TID 0000.0001) PTRACERS_diffK4 = /* Biharmonic Diffusivity */
(PID.TID 0000.0001)                 0.000000000000000E+00
(PID.TID 0000.0001)     ;
(PID.TID 0000.0001) PTRACERS_diffKrNr = /* Vertical Diffusivity */
(PID.TID 0000.0001)    24 @  1.000000000000000E-06              /* K =  1: 24 */
(PID.TID 0000.0001)     ;
(PID.TID 0000.0001) PTRACERS_useGMRedi = /* apply GM-Redi */
(PID.TID 0000.0001)                   F
(PID.TID 0000.0001)     ;
(PID.TID 0000.0001) PTRACERS_useDWNSLP = /* apply DOWN-SLOPE Flow */
(PID.TID 0000.0001)                   F
(PID.TID 0000.0001)     ;
(PID.TID 0000.0001) PTRACERS_useKPP = /* apply KPP scheme */
(PID.TID 0000.0001)                   T
(PID.TID 0000.0001)     ;
(PID.TID 0000.0001) PTRACERS_ref = /* Reference vertical profile */
(PID.TID 0000.0001)    24 @  0.000000000000000E+00              /* K =  1: 24 */
(PID.TID 0000.0001)     ;
(PID.TID 0000.0001) PTRACERS_EvPrRn =/* tracer conc. in Evap. & Rain */
(PID.TID 0000.0001)                 1.234567000000000E+05
(PID.TID 0000.0001)     ;
(PID.TID 0000.0001)  -----------------------------------
(PID.TID 0000.0001)  tracer number :   50
(PID.TID 0000.0001) PTRACERS_names = /* Tracer short name */
(PID.TID 0000.0001)               'Phy29'
(PID.TID 0000.0001)     ;
(PID.TID 0000.0001) PTRACERS_long_names = /* Tracer long name */
(PID.TID 0000.0001)               ''
(PID.TID 0000.0001)     ;
(PID.TID 0000.0001) PTRACERS_ioLabel = /* tracer IO Label */
(PID.TID 0000.0001)               '50'
(PID.TID 0000.0001)     ;
(PID.TID 0000.0001) PTRACERS_advScheme = /* Advection Scheme */
(PID.TID 0000.0001)                      33
(PID.TID 0000.0001)     ;
(PID.TID 0000.0001) PTRACERS_SOM_Advection = /* tracer uses SOM advection scheme */
(PID.TID 0000.0001)                   F
(PID.TID 0000.0001)     ;
(PID.TID 0000.0001) PTRACERS_ImplVertAdv = /* implicit vert. advection flag */
(PID.TID 0000.0001)                   F
(PID.TID 0000.0001)     ;
(PID.TID 0000.0001) PTRACERS_diffKh = /* Laplacian Diffusivity */
(PID.TID 0000.0001)                 0.000000000000000E+00
(PID.TID 0000.0001)     ;
(PID.TID 0000.0001) PTRACERS_diffK4 = /* Biharmonic Diffusivity */
(PID.TID 0000.0001)                 0.000000000000000E+00
(PID.TID 0000.0001)     ;
(PID.TID 0000.0001) PTRACERS_diffKrNr = /* Vertical Diffusivity */
(PID.TID 0000.0001)    24 @  1.000000000000000E-06              /* K =  1: 24 */
(PID.TID 0000.0001)     ;
(PID.TID 0000.0001) PTRACERS_useGMRedi = /* apply GM-Redi */
(PID.TID 0000.0001)                   F
(PID.TID 0000.0001)     ;
(PID.TID 0000.0001) PTRACERS_useDWNSLP = /* apply DOWN-SLOPE Flow */
(PID.TID 0000.0001)                   F
(PID.TID 0000.0001)     ;
(PID.TID 0000.0001) PTRACERS_useKPP = /* apply KPP scheme */
(PID.TID 0000.0001)                   T
(PID.TID 0000.0001)     ;
(PID.TID 0000.0001) PTRACERS_ref = /* Reference vertical profile */
(PID.TID 0000.0001)    24 @  0.000000000000000E+00              /* K =  1: 24 */
(PID.TID 0000.0001)     ;
(PID.TID 0000.0001) PTRACERS_EvPrRn =/* tracer conc. in Evap. & Rain */
(PID.TID 0000.0001)                 1.234567000000000E+05
(PID.TID 0000.0001)     ;
(PID.TID 0000.0001)  -----------------------------------
(PID.TID 0000.0001)  tracer number :   51
(PID.TID 0000.0001) PTRACERS_names = /* Tracer short name */
(PID.TID 0000.0001)               'Phy30'
(PID.TID 0000.0001)     ;
(PID.TID 0000.0001) PTRACERS_long_names = /* Tracer long name */
(PID.TID 0000.0001)               ''
(PID.TID 0000.0001)     ;
(PID.TID 0000.0001) PTRACERS_ioLabel = /* tracer IO Label */
(PID.TID 0000.0001)               '51'
(PID.TID 0000.0001)     ;
(PID.TID 0000.0001) PTRACERS_advScheme = /* Advection Scheme */
(PID.TID 0000.0001)                      33
(PID.TID 0000.0001)     ;
(PID.TID 0000.0001) PTRACERS_SOM_Advection = /* tracer uses SOM advection scheme */
(PID.TID 0000.0001)                   F
(PID.TID 0000.0001)     ;
(PID.TID 0000.0001) PTRACERS_ImplVertAdv = /* implicit vert. advection flag */
(PID.TID 0000.0001)                   F
(PID.TID 0000.0001)     ;
(PID.TID 0000.0001) PTRACERS_diffKh = /* Laplacian Diffusivity */
(PID.TID 0000.0001)                 0.000000000000000E+00
(PID.TID 0000.0001)     ;
(PID.TID 0000.0001) PTRACERS_diffK4 = /* Biharmonic Diffusivity */
(PID.TID 0000.0001)                 0.000000000000000E+00
(PID.TID 0000.0001)     ;
(PID.TID 0000.0001) PTRACERS_diffKrNr = /* Vertical Diffusivity */
(PID.TID 0000.0001)    24 @  1.000000000000000E-06              /* K =  1: 24 */
(PID.TID 0000.0001)     ;
(PID.TID 0000.0001) PTRACERS_useGMRedi = /* apply GM-Redi */
(PID.TID 0000.0001)                   F
(PID.TID 0000.0001)     ;
(PID.TID 0000.0001) PTRACERS_useDWNSLP = /* apply DOWN-SLOPE Flow */
(PID.TID 0000.0001)                   F
(PID.TID 0000.0001)     ;
(PID.TID 0000.0001) PTRACERS_useKPP = /* apply KPP scheme */
(PID.TID 0000.0001)                   T
(PID.TID 0000.0001)     ;
(PID.TID 0000.0001) PTRACERS_ref = /* Reference vertical profile */
(PID.TID 0000.0001)    24 @  0.000000000000000E+00              /* K =  1: 24 */
(PID.TID 0000.0001)     ;
(PID.TID 0000.0001) PTRACERS_EvPrRn =/* tracer conc. in Evap. & Rain */
(PID.TID 0000.0001)                 1.234567000000000E+05
(PID.TID 0000.0001)     ;
(PID.TID 0000.0001)  -----------------------------------
(PID.TID 0000.0001)  tracer number :   52
(PID.TID 0000.0001) PTRACERS_names = /* Tracer short name */
(PID.TID 0000.0001)               'Phy31'
(PID.TID 0000.0001)     ;
(PID.TID 0000.0001) PTRACERS_long_names = /* Tracer long name */
(PID.TID 0000.0001)               ''
(PID.TID 0000.0001)     ;
(PID.TID 0000.0001) PTRACERS_ioLabel = /* tracer IO Label */
(PID.TID 0000.0001)               '52'
(PID.TID 0000.0001)     ;
(PID.TID 0000.0001) PTRACERS_advScheme = /* Advection Scheme */
(PID.TID 0000.0001)                      33
(PID.TID 0000.0001)     ;
(PID.TID 0000.0001) PTRACERS_SOM_Advection = /* tracer uses SOM advection scheme */
(PID.TID 0000.0001)                   F
(PID.TID 0000.0001)     ;
(PID.TID 0000.0001) PTRACERS_ImplVertAdv = /* implicit vert. advection flag */
(PID.TID 0000.0001)                   F
(PID.TID 0000.0001)     ;
(PID.TID 0000.0001) PTRACERS_diffKh = /* Laplacian Diffusivity */
(PID.TID 0000.0001)                 0.000000000000000E+00
(PID.TID 0000.0001)     ;
(PID.TID 0000.0001) PTRACERS_diffK4 = /* Biharmonic Diffusivity */
(PID.TID 0000.0001)                 0.000000000000000E+00
(PID.TID 0000.0001)     ;
(PID.TID 0000.0001) PTRACERS_diffKrNr = /* Vertical Diffusivity */
(PID.TID 0000.0001)    24 @  1.000000000000000E-06              /* K =  1: 24 */
(PID.TID 0000.0001)     ;
(PID.TID 0000.0001) PTRACERS_useGMRedi = /* apply GM-Redi */
(PID.TID 0000.0001)                   F
(PID.TID 0000.0001)     ;
(PID.TID 0000.0001) PTRACERS_useDWNSLP = /* apply DOWN-SLOPE Flow */
(PID.TID 0000.0001)                   F
(PID.TID 0000.0001)     ;
(PID.TID 0000.0001) PTRACERS_useKPP = /* apply KPP scheme */
(PID.TID 0000.0001)                   T
(PID.TID 0000.0001)     ;
(PID.TID 0000.0001) PTRACERS_ref = /* Reference vertical profile */
(PID.TID 0000.0001)    24 @  0.000000000000000E+00              /* K =  1: 24 */
(PID.TID 0000.0001)     ;
(PID.TID 0000.0001) PTRACERS_EvPrRn =/* tracer conc. in Evap. & Rain */
(PID.TID 0000.0001)                 1.234567000000000E+05
(PID.TID 0000.0001)     ;
(PID.TID 0000.0001)  -----------------------------------
(PID.TID 0000.0001)  tracer number :   53
(PID.TID 0000.0001) PTRACERS_names = /* Tracer short name */
(PID.TID 0000.0001)               'Phy32'
(PID.TID 0000.0001)     ;
(PID.TID 0000.0001) PTRACERS_long_names = /* Tracer long name */
(PID.TID 0000.0001)               ''
(PID.TID 0000.0001)     ;
(PID.TID 0000.0001) PTRACERS_ioLabel = /* tracer IO Label */
(PID.TID 0000.0001)               '53'
(PID.TID 0000.0001)     ;
(PID.TID 0000.0001) PTRACERS_advScheme = /* Advection Scheme */
(PID.TID 0000.0001)                      33
(PID.TID 0000.0001)     ;
(PID.TID 0000.0001) PTRACERS_SOM_Advection = /* tracer uses SOM advection scheme */
(PID.TID 0000.0001)                   F
(PID.TID 0000.0001)     ;
(PID.TID 0000.0001) PTRACERS_ImplVertAdv = /* implicit vert. advection flag */
(PID.TID 0000.0001)                   F
(PID.TID 0000.0001)     ;
(PID.TID 0000.0001) PTRACERS_diffKh = /* Laplacian Diffusivity */
(PID.TID 0000.0001)                 0.000000000000000E+00
(PID.TID 0000.0001)     ;
(PID.TID 0000.0001) PTRACERS_diffK4 = /* Biharmonic Diffusivity */
(PID.TID 0000.0001)                 0.000000000000000E+00
(PID.TID 0000.0001)     ;
(PID.TID 0000.0001) PTRACERS_diffKrNr = /* Vertical Diffusivity */
(PID.TID 0000.0001)    24 @  1.000000000000000E-06              /* K =  1: 24 */
(PID.TID 0000.0001)     ;
(PID.TID 0000.0001) PTRACERS_useGMRedi = /* apply GM-Redi */
(PID.TID 0000.0001)                   F
(PID.TID 0000.0001)     ;
(PID.TID 0000.0001) PTRACERS_useDWNSLP = /* apply DOWN-SLOPE Flow */
(PID.TID 0000.0001)                   F
(PID.TID 0000.0001)     ;
(PID.TID 0000.0001) PTRACERS_useKPP = /* apply KPP scheme */
(PID.TID 0000.0001)                   T
(PID.TID 0000.0001)     ;
(PID.TID 0000.0001) PTRACERS_ref = /* Reference vertical profile */
(PID.TID 0000.0001)    24 @  0.000000000000000E+00              /* K =  1: 24 */
(PID.TID 0000.0001)     ;
(PID.TID 0000.0001) PTRACERS_EvPrRn =/* tracer conc. in Evap. & Rain */
(PID.TID 0000.0001)                 1.234567000000000E+05
(PID.TID 0000.0001)     ;
(PID.TID 0000.0001)  -----------------------------------
(PID.TID 0000.0001)  tracer number :   54
(PID.TID 0000.0001) PTRACERS_names = /* Tracer short name */
(PID.TID 0000.0001)               'Phy33'
(PID.TID 0000.0001)     ;
(PID.TID 0000.0001) PTRACERS_long_names = /* Tracer long name */
(PID.TID 0000.0001)               ''
(PID.TID 0000.0001)     ;
(PID.TID 0000.0001) PTRACERS_ioLabel = /* tracer IO Label */
(PID.TID 0000.0001)               '54'
(PID.TID 0000.0001)     ;
(PID.TID 0000.0001) PTRACERS_advScheme = /* Advection Scheme */
(PID.TID 0000.0001)                      33
(PID.TID 0000.0001)     ;
(PID.TID 0000.0001) PTRACERS_SOM_Advection = /* tracer uses SOM advection scheme */
(PID.TID 0000.0001)                   F
(PID.TID 0000.0001)     ;
(PID.TID 0000.0001) PTRACERS_ImplVertAdv = /* implicit vert. advection flag */
(PID.TID 0000.0001)                   F
(PID.TID 0000.0001)     ;
(PID.TID 0000.0001) PTRACERS_diffKh = /* Laplacian Diffusivity */
(PID.TID 0000.0001)                 0.000000000000000E+00
(PID.TID 0000.0001)     ;
(PID.TID 0000.0001) PTRACERS_diffK4 = /* Biharmonic Diffusivity */
(PID.TID 0000.0001)                 0.000000000000000E+00
(PID.TID 0000.0001)     ;
(PID.TID 0000.0001) PTRACERS_diffKrNr = /* Vertical Diffusivity */
(PID.TID 0000.0001)    24 @  1.000000000000000E-06              /* K =  1: 24 */
(PID.TID 0000.0001)     ;
(PID.TID 0000.0001) PTRACERS_useGMRedi = /* apply GM-Redi */
(PID.TID 0000.0001)                   F
(PID.TID 0000.0001)     ;
(PID.TID 0000.0001) PTRACERS_useDWNSLP = /* apply DOWN-SLOPE Flow */
(PID.TID 0000.0001)                   F
(PID.TID 0000.0001)     ;
(PID.TID 0000.0001) PTRACERS_useKPP = /* apply KPP scheme */
(PID.TID 0000.0001)                   T
(PID.TID 0000.0001)     ;
(PID.TID 0000.0001) PTRACERS_ref = /* Reference vertical profile */
(PID.TID 0000.0001)    24 @  0.000000000000000E+00              /* K =  1: 24 */
(PID.TID 0000.0001)     ;
(PID.TID 0000.0001) PTRACERS_EvPrRn =/* tracer conc. in Evap. & Rain */
(PID.TID 0000.0001)                 1.234567000000000E+05
(PID.TID 0000.0001)     ;
(PID.TID 0000.0001)  -----------------------------------
(PID.TID 0000.0001)  tracer number :   55
(PID.TID 0000.0001) PTRACERS_names = /* Tracer short name */
(PID.TID 0000.0001)               'Phy34'
(PID.TID 0000.0001)     ;
(PID.TID 0000.0001) PTRACERS_long_names = /* Tracer long name */
(PID.TID 0000.0001)               ''
(PID.TID 0000.0001)     ;
(PID.TID 0000.0001) PTRACERS_ioLabel = /* tracer IO Label */
(PID.TID 0000.0001)               '55'
(PID.TID 0000.0001)     ;
(PID.TID 0000.0001) PTRACERS_advScheme = /* Advection Scheme */
(PID.TID 0000.0001)                      33
(PID.TID 0000.0001)     ;
(PID.TID 0000.0001) PTRACERS_SOM_Advection = /* tracer uses SOM advection scheme */
(PID.TID 0000.0001)                   F
(PID.TID 0000.0001)     ;
(PID.TID 0000.0001) PTRACERS_ImplVertAdv = /* implicit vert. advection flag */
(PID.TID 0000.0001)                   F
(PID.TID 0000.0001)     ;
(PID.TID 0000.0001) PTRACERS_diffKh = /* Laplacian Diffusivity */
(PID.TID 0000.0001)                 0.000000000000000E+00
(PID.TID 0000.0001)     ;
(PID.TID 0000.0001) PTRACERS_diffK4 = /* Biharmonic Diffusivity */
(PID.TID 0000.0001)                 0.000000000000000E+00
(PID.TID 0000.0001)     ;
(PID.TID 0000.0001) PTRACERS_diffKrNr = /* Vertical Diffusivity */
(PID.TID 0000.0001)    24 @  1.000000000000000E-06              /* K =  1: 24 */
(PID.TID 0000.0001)     ;
(PID.TID 0000.0001) PTRACERS_useGMRedi = /* apply GM-Redi */
(PID.TID 0000.0001)                   F
(PID.TID 0000.0001)     ;
(PID.TID 0000.0001) PTRACERS_useDWNSLP = /* apply DOWN-SLOPE Flow */
(PID.TID 0000.0001)                   F
(PID.TID 0000.0001)     ;
(PID.TID 0000.0001) PTRACERS_useKPP = /* apply KPP scheme */
(PID.TID 0000.0001)                   T
(PID.TID 0000.0001)     ;
(PID.TID 0000.0001) PTRACERS_ref = /* Reference vertical profile */
(PID.TID 0000.0001)    24 @  0.000000000000000E+00              /* K =  1: 24 */
(PID.TID 0000.0001)     ;
(PID.TID 0000.0001) PTRACERS_EvPrRn =/* tracer conc. in Evap. & Rain */
(PID.TID 0000.0001)                 1.234567000000000E+05
(PID.TID 0000.0001)     ;
(PID.TID 0000.0001)  -----------------------------------
(PID.TID 0000.0001)  tracer number :   56
(PID.TID 0000.0001) PTRACERS_names = /* Tracer short name */
(PID.TID 0000.0001)               'Phy35'
(PID.TID 0000.0001)     ;
(PID.TID 0000.0001) PTRACERS_long_names = /* Tracer long name */
(PID.TID 0000.0001)               ''
(PID.TID 0000.0001)     ;
(PID.TID 0000.0001) PTRACERS_ioLabel = /* tracer IO Label */
(PID.TID 0000.0001)               '56'
(PID.TID 0000.0001)     ;
(PID.TID 0000.0001) PTRACERS_advScheme = /* Advection Scheme */
(PID.TID 0000.0001)                      33
(PID.TID 0000.0001)     ;
(PID.TID 0000.0001) PTRACERS_SOM_Advection = /* tracer uses SOM advection scheme */
(PID.TID 0000.0001)                   F
(PID.TID 0000.0001)     ;
(PID.TID 0000.0001) PTRACERS_ImplVertAdv = /* implicit vert. advection flag */
(PID.TID 0000.0001)                   F
(PID.TID 0000.0001)     ;
(PID.TID 0000.0001) PTRACERS_diffKh = /* Laplacian Diffusivity */
(PID.TID 0000.0001)                 0.000000000000000E+00
(PID.TID 0000.0001)     ;
(PID.TID 0000.0001) PTRACERS_diffK4 = /* Biharmonic Diffusivity */
(PID.TID 0000.0001)                 0.000000000000000E+00
(PID.TID 0000.0001)     ;
(PID.TID 0000.0001) PTRACERS_diffKrNr = /* Vertical Diffusivity */
(PID.TID 0000.0001)    24 @  1.000000000000000E-06              /* K =  1: 24 */
(PID.TID 0000.0001)     ;
(PID.TID 0000.0001) PTRACERS_useGMRedi = /* apply GM-Redi */
(PID.TID 0000.0001)                   F
(PID.TID 0000.0001)     ;
(PID.TID 0000.0001) PTRACERS_useDWNSLP = /* apply DOWN-SLOPE Flow */
(PID.TID 0000.0001)                   F
(PID.TID 0000.0001)     ;
(PID.TID 0000.0001) PTRACERS_useKPP = /* apply KPP scheme */
(PID.TID 0000.0001)                   T
(PID.TID 0000.0001)     ;
(PID.TID 0000.0001) PTRACERS_ref = /* Reference vertical profile */
(PID.TID 0000.0001)    24 @  0.000000000000000E+00              /* K =  1: 24 */
(PID.TID 0000.0001)     ;
(PID.TID 0000.0001) PTRACERS_EvPrRn =/* tracer conc. in Evap. & Rain */
(PID.TID 0000.0001)                 1.234567000000000E+05
(PID.TID 0000.0001)     ;
(PID.TID 0000.0001)  -----------------------------------
(PID.TID 0000.0001)  tracer number :   57
(PID.TID 0000.0001) PTRACERS_names = /* Tracer short name */
(PID.TID 0000.0001)               'Phy36'
(PID.TID 0000.0001)     ;
(PID.TID 0000.0001) PTRACERS_long_names = /* Tracer long name */
(PID.TID 0000.0001)               ''
(PID.TID 0000.0001)     ;
(PID.TID 0000.0001) PTRACERS_ioLabel = /* tracer IO Label */
(PID.TID 0000.0001)               '57'
(PID.TID 0000.0001)     ;
(PID.TID 0000.0001) PTRACERS_advScheme = /* Advection Scheme */
(PID.TID 0000.0001)                      33
(PID.TID 0000.0001)     ;
(PID.TID 0000.0001) PTRACERS_SOM_Advection = /* tracer uses SOM advection scheme */
(PID.TID 0000.0001)                   F
(PID.TID 0000.0001)     ;
(PID.TID 0000.0001) PTRACERS_ImplVertAdv = /* implicit vert. advection flag */
(PID.TID 0000.0001)                   F
(PID.TID 0000.0001)     ;
(PID.TID 0000.0001) PTRACERS_diffKh = /* Laplacian Diffusivity */
(PID.TID 0000.0001)                 0.000000000000000E+00
(PID.TID 0000.0001)     ;
(PID.TID 0000.0001) PTRACERS_diffK4 = /* Biharmonic Diffusivity */
(PID.TID 0000.0001)                 0.000000000000000E+00
(PID.TID 0000.0001)     ;
(PID.TID 0000.0001) PTRACERS_diffKrNr = /* Vertical Diffusivity */
(PID.TID 0000.0001)    24 @  1.000000000000000E-06              /* K =  1: 24 */
(PID.TID 0000.0001)     ;
(PID.TID 0000.0001) PTRACERS_useGMRedi = /* apply GM-Redi */
(PID.TID 0000.0001)                   F
(PID.TID 0000.0001)     ;
(PID.TID 0000.0001) PTRACERS_useDWNSLP = /* apply DOWN-SLOPE Flow */
(PID.TID 0000.0001)                   F
(PID.TID 0000.0001)     ;
(PID.TID 0000.0001) PTRACERS_useKPP = /* apply KPP scheme */
(PID.TID 0000.0001)                   T
(PID.TID 0000.0001)     ;
(PID.TID 0000.0001) PTRACERS_ref = /* Reference vertical profile */
(PID.TID 0000.0001)    24 @  0.000000000000000E+00              /* K =  1: 24 */
(PID.TID 0000.0001)     ;
(PID.TID 0000.0001) PTRACERS_EvPrRn =/* tracer conc. in Evap. & Rain */
(PID.TID 0000.0001)                 1.234567000000000E+05
(PID.TID 0000.0001)     ;
(PID.TID 0000.0001)  -----------------------------------
(PID.TID 0000.0001)  tracer number :   58
(PID.TID 0000.0001) PTRACERS_names = /* Tracer short name */
(PID.TID 0000.0001)               'Phy37'
(PID.TID 0000.0001)     ;
(PID.TID 0000.0001) PTRACERS_long_names = /* Tracer long name */
(PID.TID 0000.0001)               ''
(PID.TID 0000.0001)     ;
(PID.TID 0000.0001) PTRACERS_ioLabel = /* tracer IO Label */
(PID.TID 0000.0001)               '58'
(PID.TID 0000.0001)     ;
(PID.TID 0000.0001) PTRACERS_advScheme = /* Advection Scheme */
(PID.TID 0000.0001)                      33
(PID.TID 0000.0001)     ;
(PID.TID 0000.0001) PTRACERS_SOM_Advection = /* tracer uses SOM advection scheme */
(PID.TID 0000.0001)                   F
(PID.TID 0000.0001)     ;
(PID.TID 0000.0001) PTRACERS_ImplVertAdv = /* implicit vert. advection flag */
(PID.TID 0000.0001)                   F
(PID.TID 0000.0001)     ;
(PID.TID 0000.0001) PTRACERS_diffKh = /* Laplacian Diffusivity */
(PID.TID 0000.0001)                 0.000000000000000E+00
(PID.TID 0000.0001)     ;
(PID.TID 0000.0001) PTRACERS_diffK4 = /* Biharmonic Diffusivity */
(PID.TID 0000.0001)                 0.000000000000000E+00
(PID.TID 0000.0001)     ;
(PID.TID 0000.0001) PTRACERS_diffKrNr = /* Vertical Diffusivity */
(PID.TID 0000.0001)    24 @  1.000000000000000E-06              /* K =  1: 24 */
(PID.TID 0000.0001)     ;
(PID.TID 0000.0001) PTRACERS_useGMRedi = /* apply GM-Redi */
(PID.TID 0000.0001)                   F
(PID.TID 0000.0001)     ;
(PID.TID 0000.0001) PTRACERS_useDWNSLP = /* apply DOWN-SLOPE Flow */
(PID.TID 0000.0001)                   F
(PID.TID 0000.0001)     ;
(PID.TID 0000.0001) PTRACERS_useKPP = /* apply KPP scheme */
(PID.TID 0000.0001)                   T
(PID.TID 0000.0001)     ;
(PID.TID 0000.0001) PTRACERS_ref = /* Reference vertical profile */
(PID.TID 0000.0001)    24 @  0.000000000000000E+00              /* K =  1: 24 */
(PID.TID 0000.0001)     ;
(PID.TID 0000.0001) PTRACERS_EvPrRn =/* tracer conc. in Evap. & Rain */
(PID.TID 0000.0001)                 1.234567000000000E+05
(PID.TID 0000.0001)     ;
(PID.TID 0000.0001)  -----------------------------------
(PID.TID 0000.0001)  tracer number :   59
(PID.TID 0000.0001) PTRACERS_names = /* Tracer short name */
(PID.TID 0000.0001)               'Phy38'
(PID.TID 0000.0001)     ;
(PID.TID 0000.0001) PTRACERS_long_names = /* Tracer long name */
(PID.TID 0000.0001)               ''
(PID.TID 0000.0001)     ;
(PID.TID 0000.0001) PTRACERS_ioLabel = /* tracer IO Label */
(PID.TID 0000.0001)               '59'
(PID.TID 0000.0001)     ;
(PID.TID 0000.0001) PTRACERS_advScheme = /* Advection Scheme */
(PID.TID 0000.0001)                      33
(PID.TID 0000.0001)     ;
(PID.TID 0000.0001) PTRACERS_SOM_Advection = /* tracer uses SOM advection scheme */
(PID.TID 0000.0001)                   F
(PID.TID 0000.0001)     ;
(PID.TID 0000.0001) PTRACERS_ImplVertAdv = /* implicit vert. advection flag */
(PID.TID 0000.0001)                   F
(PID.TID 0000.0001)     ;
(PID.TID 0000.0001) PTRACERS_diffKh = /* Laplacian Diffusivity */
(PID.TID 0000.0001)                 0.000000000000000E+00
(PID.TID 0000.0001)     ;
(PID.TID 0000.0001) PTRACERS_diffK4 = /* Biharmonic Diffusivity */
(PID.TID 0000.0001)                 0.000000000000000E+00
(PID.TID 0000.0001)     ;
(PID.TID 0000.0001) PTRACERS_diffKrNr = /* Vertical Diffusivity */
(PID.TID 0000.0001)    24 @  1.000000000000000E-06              /* K =  1: 24 */
(PID.TID 0000.0001)     ;
(PID.TID 0000.0001) PTRACERS_useGMRedi = /* apply GM-Redi */
(PID.TID 0000.0001)                   F
(PID.TID 0000.0001)     ;
(PID.TID 0000.0001) PTRACERS_useDWNSLP = /* apply DOWN-SLOPE Flow */
(PID.TID 0000.0001)                   F
(PID.TID 0000.0001)     ;
(PID.TID 0000.0001) PTRACERS_useKPP = /* apply KPP scheme */
(PID.TID 0000.0001)                   T
(PID.TID 0000.0001)     ;
(PID.TID 0000.0001) PTRACERS_ref = /* Reference vertical profile */
(PID.TID 0000.0001)    24 @  0.000000000000000E+00              /* K =  1: 24 */
(PID.TID 0000.0001)     ;
(PID.TID 0000.0001) PTRACERS_EvPrRn =/* tracer conc. in Evap. & Rain */
(PID.TID 0000.0001)                 1.234567000000000E+05
(PID.TID 0000.0001)     ;
(PID.TID 0000.0001)  -----------------------------------
(PID.TID 0000.0001)  tracer number :   60
(PID.TID 0000.0001) PTRACERS_names = /* Tracer short name */
(PID.TID 0000.0001)               'Phy39'
(PID.TID 0000.0001)     ;
(PID.TID 0000.0001) PTRACERS_long_names = /* Tracer long name */
(PID.TID 0000.0001)               ''
(PID.TID 0000.0001)     ;
(PID.TID 0000.0001) PTRACERS_ioLabel = /* tracer IO Label */
(PID.TID 0000.0001)               '60'
(PID.TID 0000.0001)     ;
(PID.TID 0000.0001) PTRACERS_advScheme = /* Advection Scheme */
(PID.TID 0000.0001)                      33
(PID.TID 0000.0001)     ;
(PID.TID 0000.0001) PTRACERS_SOM_Advection = /* tracer uses SOM advection scheme */
(PID.TID 0000.0001)                   F
(PID.TID 0000.0001)     ;
(PID.TID 0000.0001) PTRACERS_ImplVertAdv = /* implicit vert. advection flag */
(PID.TID 0000.0001)                   F
(PID.TID 0000.0001)     ;
(PID.TID 0000.0001) PTRACERS_diffKh = /* Laplacian Diffusivity */
(PID.TID 0000.0001)                 0.000000000000000E+00
(PID.TID 0000.0001)     ;
(PID.TID 0000.0001) PTRACERS_diffK4 = /* Biharmonic Diffusivity */
(PID.TID 0000.0001)                 0.000000000000000E+00
(PID.TID 0000.0001)     ;
(PID.TID 0000.0001) PTRACERS_diffKrNr = /* Vertical Diffusivity */
(PID.TID 0000.0001)    24 @  1.000000000000000E-06              /* K =  1: 24 */
(PID.TID 0000.0001)     ;
(PID.TID 0000.0001) PTRACERS_useGMRedi = /* apply GM-Redi */
(PID.TID 0000.0001)                   F
(PID.TID 0000.0001)     ;
(PID.TID 0000.0001) PTRACERS_useDWNSLP = /* apply DOWN-SLOPE Flow */
(PID.TID 0000.0001)                   F
(PID.TID 0000.0001)     ;
(PID.TID 0000.0001) PTRACERS_useKPP = /* apply KPP scheme */
(PID.TID 0000.0001)                   T
(PID.TID 0000.0001)     ;
(PID.TID 0000.0001) PTRACERS_ref = /* Reference vertical profile */
(PID.TID 0000.0001)    24 @  0.000000000000000E+00              /* K =  1: 24 */
(PID.TID 0000.0001)     ;
(PID.TID 0000.0001) PTRACERS_EvPrRn =/* tracer conc. in Evap. & Rain */
(PID.TID 0000.0001)                 1.234567000000000E+05
(PID.TID 0000.0001)     ;
(PID.TID 0000.0001)  -----------------------------------
(PID.TID 0000.0001)  tracer number :   61
(PID.TID 0000.0001) PTRACERS_names = /* Tracer short name */
(PID.TID 0000.0001)               'Phy40'
(PID.TID 0000.0001)     ;
(PID.TID 0000.0001) PTRACERS_long_names = /* Tracer long name */
(PID.TID 0000.0001)               ''
(PID.TID 0000.0001)     ;
(PID.TID 0000.0001) PTRACERS_ioLabel = /* tracer IO Label */
(PID.TID 0000.0001)               '61'
(PID.TID 0000.0001)     ;
(PID.TID 0000.0001) PTRACERS_advScheme = /* Advection Scheme */
(PID.TID 0000.0001)                      33
(PID.TID 0000.0001)     ;
(PID.TID 0000.0001) PTRACERS_SOM_Advection = /* tracer uses SOM advection scheme */
(PID.TID 0000.0001)                   F
(PID.TID 0000.0001)     ;
(PID.TID 0000.0001) PTRACERS_ImplVertAdv = /* implicit vert. advection flag */
(PID.TID 0000.0001)                   F
(PID.TID 0000.0001)     ;
(PID.TID 0000.0001) PTRACERS_diffKh = /* Laplacian Diffusivity */
(PID.TID 0000.0001)                 0.000000000000000E+00
(PID.TID 0000.0001)     ;
(PID.TID 0000.0001) PTRACERS_diffK4 = /* Biharmonic Diffusivity */
(PID.TID 0000.0001)                 0.000000000000000E+00
(PID.TID 0000.0001)     ;
(PID.TID 0000.0001) PTRACERS_diffKrNr = /* Vertical Diffusivity */
(PID.TID 0000.0001)    24 @  1.000000000000000E-06              /* K =  1: 24 */
(PID.TID 0000.0001)     ;
(PID.TID 0000.0001) PTRACERS_useGMRedi = /* apply GM-Redi */
(PID.TID 0000.0001)                   F
(PID.TID 0000.0001)     ;
(PID.TID 0000.0001) PTRACERS_useDWNSLP = /* apply DOWN-SLOPE Flow */
(PID.TID 0000.0001)                   F
(PID.TID 0000.0001)     ;
(PID.TID 0000.0001) PTRACERS_useKPP = /* apply KPP scheme */
(PID.TID 0000.0001)                   T
(PID.TID 0000.0001)     ;
(PID.TID 0000.0001) PTRACERS_ref = /* Reference vertical profile */
(PID.TID 0000.0001)    24 @  0.000000000000000E+00              /* K =  1: 24 */
(PID.TID 0000.0001)     ;
(PID.TID 0000.0001) PTRACERS_EvPrRn =/* tracer conc. in Evap. & Rain */
(PID.TID 0000.0001)                 1.234567000000000E+05
(PID.TID 0000.0001)     ;
(PID.TID 0000.0001)  -----------------------------------
(PID.TID 0000.0001)  tracer number :   62
(PID.TID 0000.0001) PTRACERS_names = /* Tracer short name */
(PID.TID 0000.0001)               'Phy41'
(PID.TID 0000.0001)     ;
(PID.TID 0000.0001) PTRACERS_long_names = /* Tracer long name */
(PID.TID 0000.0001)               ''
(PID.TID 0000.0001)     ;
(PID.TID 0000.0001) PTRACERS_ioLabel = /* tracer IO Label */
(PID.TID 0000.0001)               '62'
(PID.TID 0000.0001)     ;
(PID.TID 0000.0001) PTRACERS_advScheme = /* Advection Scheme */
(PID.TID 0000.0001)                      33
(PID.TID 0000.0001)     ;
(PID.TID 0000.0001) PTRACERS_SOM_Advection = /* tracer uses SOM advection scheme */
(PID.TID 0000.0001)                   F
(PID.TID 0000.0001)     ;
(PID.TID 0000.0001) PTRACERS_ImplVertAdv = /* implicit vert. advection flag */
(PID.TID 0000.0001)                   F
(PID.TID 0000.0001)     ;
(PID.TID 0000.0001) PTRACERS_diffKh = /* Laplacian Diffusivity */
(PID.TID 0000.0001)                 0.000000000000000E+00
(PID.TID 0000.0001)     ;
(PID.TID 0000.0001) PTRACERS_diffK4 = /* Biharmonic Diffusivity */
(PID.TID 0000.0001)                 0.000000000000000E+00
(PID.TID 0000.0001)     ;
(PID.TID 0000.0001) PTRACERS_diffKrNr = /* Vertical Diffusivity */
(PID.TID 0000.0001)    24 @  1.000000000000000E-06              /* K =  1: 24 */
(PID.TID 0000.0001)     ;
(PID.TID 0000.0001) PTRACERS_useGMRedi = /* apply GM-Redi */
(PID.TID 0000.0001)                   F
(PID.TID 0000.0001)     ;
(PID.TID 0000.0001) PTRACERS_useDWNSLP = /* apply DOWN-SLOPE Flow */
(PID.TID 0000.0001)                   F
(PID.TID 0000.0001)     ;
(PID.TID 0000.0001) PTRACERS_useKPP = /* apply KPP scheme */
(PID.TID 0000.0001)                   T
(PID.TID 0000.0001)     ;
(PID.TID 0000.0001) PTRACERS_ref = /* Reference vertical profile */
(PID.TID 0000.0001)    24 @  0.000000000000000E+00              /* K =  1: 24 */
(PID.TID 0000.0001)     ;
(PID.TID 0000.0001) PTRACERS_EvPrRn =/* tracer conc. in Evap. & Rain */
(PID.TID 0000.0001)                 1.234567000000000E+05
(PID.TID 0000.0001)     ;
(PID.TID 0000.0001)  -----------------------------------
(PID.TID 0000.0001)  tracer number :   63
(PID.TID 0000.0001) PTRACERS_names = /* Tracer short name */
(PID.TID 0000.0001)               'Phy42'
(PID.TID 0000.0001)     ;
(PID.TID 0000.0001) PTRACERS_long_names = /* Tracer long name */
(PID.TID 0000.0001)               ''
(PID.TID 0000.0001)     ;
(PID.TID 0000.0001) PTRACERS_ioLabel = /* tracer IO Label */
(PID.TID 0000.0001)               '63'
(PID.TID 0000.0001)     ;
(PID.TID 0000.0001) PTRACERS_advScheme = /* Advection Scheme */
(PID.TID 0000.0001)                      33
(PID.TID 0000.0001)     ;
(PID.TID 0000.0001) PTRACERS_SOM_Advection = /* tracer uses SOM advection scheme */
(PID.TID 0000.0001)                   F
(PID.TID 0000.0001)     ;
(PID.TID 0000.0001) PTRACERS_ImplVertAdv = /* implicit vert. advection flag */
(PID.TID 0000.0001)                   F
(PID.TID 0000.0001)     ;
(PID.TID 0000.0001) PTRACERS_diffKh = /* Laplacian Diffusivity */
(PID.TID 0000.0001)                 0.000000000000000E+00
(PID.TID 0000.0001)     ;
(PID.TID 0000.0001) PTRACERS_diffK4 = /* Biharmonic Diffusivity */
(PID.TID 0000.0001)                 0.000000000000000E+00
(PID.TID 0000.0001)     ;
(PID.TID 0000.0001) PTRACERS_diffKrNr = /* Vertical Diffusivity */
(PID.TID 0000.0001)    24 @  1.000000000000000E-06              /* K =  1: 24 */
(PID.TID 0000.0001)     ;
(PID.TID 0000.0001) PTRACERS_useGMRedi = /* apply GM-Redi */
(PID.TID 0000.0001)                   F
(PID.TID 0000.0001)     ;
(PID.TID 0000.0001) PTRACERS_useDWNSLP = /* apply DOWN-SLOPE Flow */
(PID.TID 0000.0001)                   F
(PID.TID 0000.0001)     ;
(PID.TID 0000.0001) PTRACERS_useKPP = /* apply KPP scheme */
(PID.TID 0000.0001)                   T
(PID.TID 0000.0001)     ;
(PID.TID 0000.0001) PTRACERS_ref = /* Reference vertical profile */
(PID.TID 0000.0001)    24 @  0.000000000000000E+00              /* K =  1: 24 */
(PID.TID 0000.0001)     ;
(PID.TID 0000.0001) PTRACERS_EvPrRn =/* tracer conc. in Evap. & Rain */
(PID.TID 0000.0001)                 1.234567000000000E+05
(PID.TID 0000.0001)     ;
(PID.TID 0000.0001)  -----------------------------------
(PID.TID 0000.0001)  tracer number :   64
(PID.TID 0000.0001) PTRACERS_names = /* Tracer short name */
(PID.TID 0000.0001)               'Phy43'
(PID.TID 0000.0001)     ;
(PID.TID 0000.0001) PTRACERS_long_names = /* Tracer long name */
(PID.TID 0000.0001)               ''
(PID.TID 0000.0001)     ;
(PID.TID 0000.0001) PTRACERS_ioLabel = /* tracer IO Label */
(PID.TID 0000.0001)               '64'
(PID.TID 0000.0001)     ;
(PID.TID 0000.0001) PTRACERS_advScheme = /* Advection Scheme */
(PID.TID 0000.0001)                      33
(PID.TID 0000.0001)     ;
(PID.TID 0000.0001) PTRACERS_SOM_Advection = /* tracer uses SOM advection scheme */
(PID.TID 0000.0001)                   F
(PID.TID 0000.0001)     ;
(PID.TID 0000.0001) PTRACERS_ImplVertAdv = /* implicit vert. advection flag */
(PID.TID 0000.0001)                   F
(PID.TID 0000.0001)     ;
(PID.TID 0000.0001) PTRACERS_diffKh = /* Laplacian Diffusivity */
(PID.TID 0000.0001)                 0.000000000000000E+00
(PID.TID 0000.0001)     ;
(PID.TID 0000.0001) PTRACERS_diffK4 = /* Biharmonic Diffusivity */
(PID.TID 0000.0001)                 0.000000000000000E+00
(PID.TID 0000.0001)     ;
(PID.TID 0000.0001) PTRACERS_diffKrNr = /* Vertical Diffusivity */
(PID.TID 0000.0001)    24 @  1.000000000000000E-06              /* K =  1: 24 */
(PID.TID 0000.0001)     ;
(PID.TID 0000.0001) PTRACERS_useGMRedi = /* apply GM-Redi */
(PID.TID 0000.0001)                   F
(PID.TID 0000.0001)     ;
(PID.TID 0000.0001) PTRACERS_useDWNSLP = /* apply DOWN-SLOPE Flow */
(PID.TID 0000.0001)                   F
(PID.TID 0000.0001)     ;
(PID.TID 0000.0001) PTRACERS_useKPP = /* apply KPP scheme */
(PID.TID 0000.0001)                   T
(PID.TID 0000.0001)     ;
(PID.TID 0000.0001) PTRACERS_ref = /* Reference vertical profile */
(PID.TID 0000.0001)    24 @  0.000000000000000E+00              /* K =  1: 24 */
(PID.TID 0000.0001)     ;
(PID.TID 0000.0001) PTRACERS_EvPrRn =/* tracer conc. in Evap. & Rain */
(PID.TID 0000.0001)                 1.234567000000000E+05
(PID.TID 0000.0001)     ;
(PID.TID 0000.0001)  -----------------------------------
(PID.TID 0000.0001)  tracer number :   65
(PID.TID 0000.0001) PTRACERS_names = /* Tracer short name */
(PID.TID 0000.0001)               'Phy44'
(PID.TID 0000.0001)     ;
(PID.TID 0000.0001) PTRACERS_long_names = /* Tracer long name */
(PID.TID 0000.0001)               ''
(PID.TID 0000.0001)     ;
(PID.TID 0000.0001) PTRACERS_ioLabel = /* tracer IO Label */
(PID.TID 0000.0001)               '65'
(PID.TID 0000.0001)     ;
(PID.TID 0000.0001) PTRACERS_advScheme = /* Advection Scheme */
(PID.TID 0000.0001)                      33
(PID.TID 0000.0001)     ;
(PID.TID 0000.0001) PTRACERS_SOM_Advection = /* tracer uses SOM advection scheme */
(PID.TID 0000.0001)                   F
(PID.TID 0000.0001)     ;
(PID.TID 0000.0001) PTRACERS_ImplVertAdv = /* implicit vert. advection flag */
(PID.TID 0000.0001)                   F
(PID.TID 0000.0001)     ;
(PID.TID 0000.0001) PTRACERS_diffKh = /* Laplacian Diffusivity */
(PID.TID 0000.0001)                 0.000000000000000E+00
(PID.TID 0000.0001)     ;
(PID.TID 0000.0001) PTRACERS_diffK4 = /* Biharmonic Diffusivity */
(PID.TID 0000.0001)                 0.000000000000000E+00
(PID.TID 0000.0001)     ;
(PID.TID 0000.0001) PTRACERS_diffKrNr = /* Vertical Diffusivity */
(PID.TID 0000.0001)    24 @  1.000000000000000E-06              /* K =  1: 24 */
(PID.TID 0000.0001)     ;
(PID.TID 0000.0001) PTRACERS_useGMRedi = /* apply GM-Redi */
(PID.TID 0000.0001)                   F
(PID.TID 0000.0001)     ;
(PID.TID 0000.0001) PTRACERS_useDWNSLP = /* apply DOWN-SLOPE Flow */
(PID.TID 0000.0001)                   F
(PID.TID 0000.0001)     ;
(PID.TID 0000.0001) PTRACERS_useKPP = /* apply KPP scheme */
(PID.TID 0000.0001)                   T
(PID.TID 0000.0001)     ;
(PID.TID 0000.0001) PTRACERS_ref = /* Reference vertical profile */
(PID.TID 0000.0001)    24 @  0.000000000000000E+00              /* K =  1: 24 */
(PID.TID 0000.0001)     ;
(PID.TID 0000.0001) PTRACERS_EvPrRn =/* tracer conc. in Evap. & Rain */
(PID.TID 0000.0001)                 1.234567000000000E+05
(PID.TID 0000.0001)     ;
(PID.TID 0000.0001)  -----------------------------------
(PID.TID 0000.0001)  tracer number :   66
(PID.TID 0000.0001) PTRACERS_names = /* Tracer short name */
(PID.TID 0000.0001)               'Phy45'
(PID.TID 0000.0001)     ;
(PID.TID 0000.0001) PTRACERS_long_names = /* Tracer long name */
(PID.TID 0000.0001)               ''
(PID.TID 0000.0001)     ;
(PID.TID 0000.0001) PTRACERS_ioLabel = /* tracer IO Label */
(PID.TID 0000.0001)               '66'
(PID.TID 0000.0001)     ;
(PID.TID 0000.0001) PTRACERS_advScheme = /* Advection Scheme */
(PID.TID 0000.0001)                      33
(PID.TID 0000.0001)     ;
(PID.TID 0000.0001) PTRACERS_SOM_Advection = /* tracer uses SOM advection scheme */
(PID.TID 0000.0001)                   F
(PID.TID 0000.0001)     ;
(PID.TID 0000.0001) PTRACERS_ImplVertAdv = /* implicit vert. advection flag */
(PID.TID 0000.0001)                   F
(PID.TID 0000.0001)     ;
(PID.TID 0000.0001) PTRACERS_diffKh = /* Laplacian Diffusivity */
(PID.TID 0000.0001)                 0.000000000000000E+00
(PID.TID 0000.0001)     ;
(PID.TID 0000.0001) PTRACERS_diffK4 = /* Biharmonic Diffusivity */
(PID.TID 0000.0001)                 0.000000000000000E+00
(PID.TID 0000.0001)     ;
(PID.TID 0000.0001) PTRACERS_diffKrNr = /* Vertical Diffusivity */
(PID.TID 0000.0001)    24 @  1.000000000000000E-06              /* K =  1: 24 */
(PID.TID 0000.0001)     ;
(PID.TID 0000.0001) PTRACERS_useGMRedi = /* apply GM-Redi */
(PID.TID 0000.0001)                   F
(PID.TID 0000.0001)     ;
(PID.TID 0000.0001) PTRACERS_useDWNSLP = /* apply DOWN-SLOPE Flow */
(PID.TID 0000.0001)                   F
(PID.TID 0000.0001)     ;
(PID.TID 0000.0001) PTRACERS_useKPP = /* apply KPP scheme */
(PID.TID 0000.0001)                   T
(PID.TID 0000.0001)     ;
(PID.TID 0000.0001) PTRACERS_ref = /* Reference vertical profile */
(PID.TID 0000.0001)    24 @  0.000000000000000E+00              /* K =  1: 24 */
(PID.TID 0000.0001)     ;
(PID.TID 0000.0001) PTRACERS_EvPrRn =/* tracer conc. in Evap. & Rain */
(PID.TID 0000.0001)                 1.234567000000000E+05
(PID.TID 0000.0001)     ;
(PID.TID 0000.0001)  -----------------------------------
(PID.TID 0000.0001)  tracer number :   67
(PID.TID 0000.0001) PTRACERS_names = /* Tracer short name */
(PID.TID 0000.0001)               'Phy46'
(PID.TID 0000.0001)     ;
(PID.TID 0000.0001) PTRACERS_long_names = /* Tracer long name */
(PID.TID 0000.0001)               ''
(PID.TID 0000.0001)     ;
(PID.TID 0000.0001) PTRACERS_ioLabel = /* tracer IO Label */
(PID.TID 0000.0001)               '67'
(PID.TID 0000.0001)     ;
(PID.TID 0000.0001) PTRACERS_advScheme = /* Advection Scheme */
(PID.TID 0000.0001)                      33
(PID.TID 0000.0001)     ;
(PID.TID 0000.0001) PTRACERS_SOM_Advection = /* tracer uses SOM advection scheme */
(PID.TID 0000.0001)                   F
(PID.TID 0000.0001)     ;
(PID.TID 0000.0001) PTRACERS_ImplVertAdv = /* implicit vert. advection flag */
(PID.TID 0000.0001)                   F
(PID.TID 0000.0001)     ;
(PID.TID 0000.0001) PTRACERS_diffKh = /* Laplacian Diffusivity */
(PID.TID 0000.0001)                 0.000000000000000E+00
(PID.TID 0000.0001)     ;
(PID.TID 0000.0001) PTRACERS_diffK4 = /* Biharmonic Diffusivity */
(PID.TID 0000.0001)                 0.000000000000000E+00
(PID.TID 0000.0001)     ;
(PID.TID 0000.0001) PTRACERS_diffKrNr = /* Vertical Diffusivity */
(PID.TID 0000.0001)    24 @  1.000000000000000E-06              /* K =  1: 24 */
(PID.TID 0000.0001)     ;
(PID.TID 0000.0001) PTRACERS_useGMRedi = /* apply GM-Redi */
(PID.TID 0000.0001)                   F
(PID.TID 0000.0001)     ;
(PID.TID 0000.0001) PTRACERS_useDWNSLP = /* apply DOWN-SLOPE Flow */
(PID.TID 0000.0001)                   F
(PID.TID 0000.0001)     ;
(PID.TID 0000.0001) PTRACERS_useKPP = /* apply KPP scheme */
(PID.TID 0000.0001)                   T
(PID.TID 0000.0001)     ;
(PID.TID 0000.0001) PTRACERS_ref = /* Reference vertical profile */
(PID.TID 0000.0001)    24 @  0.000000000000000E+00              /* K =  1: 24 */
(PID.TID 0000.0001)     ;
(PID.TID 0000.0001) PTRACERS_EvPrRn =/* tracer conc. in Evap. & Rain */
(PID.TID 0000.0001)                 1.234567000000000E+05
(PID.TID 0000.0001)     ;
(PID.TID 0000.0001)  -----------------------------------
(PID.TID 0000.0001)  tracer number :   68
(PID.TID 0000.0001) PTRACERS_names = /* Tracer short name */
(PID.TID 0000.0001)               'Phy47'
(PID.TID 0000.0001)     ;
(PID.TID 0000.0001) PTRACERS_long_names = /* Tracer long name */
(PID.TID 0000.0001)               ''
(PID.TID 0000.0001)     ;
(PID.TID 0000.0001) PTRACERS_ioLabel = /* tracer IO Label */
(PID.TID 0000.0001)               '68'
(PID.TID 0000.0001)     ;
(PID.TID 0000.0001) PTRACERS_advScheme = /* Advection Scheme */
(PID.TID 0000.0001)                      33
(PID.TID 0000.0001)     ;
(PID.TID 0000.0001) PTRACERS_SOM_Advection = /* tracer uses SOM advection scheme */
(PID.TID 0000.0001)                   F
(PID.TID 0000.0001)     ;
(PID.TID 0000.0001) PTRACERS_ImplVertAdv = /* implicit vert. advection flag */
(PID.TID 0000.0001)                   F
(PID.TID 0000.0001)     ;
(PID.TID 0000.0001) PTRACERS_diffKh = /* Laplacian Diffusivity */
(PID.TID 0000.0001)                 0.000000000000000E+00
(PID.TID 0000.0001)     ;
(PID.TID 0000.0001) PTRACERS_diffK4 = /* Biharmonic Diffusivity */
(PID.TID 0000.0001)                 0.000000000000000E+00
(PID.TID 0000.0001)     ;
(PID.TID 0000.0001) PTRACERS_diffKrNr = /* Vertical Diffusivity */
(PID.TID 0000.0001)    24 @  1.000000000000000E-06              /* K =  1: 24 */
(PID.TID 0000.0001)     ;
(PID.TID 0000.0001) PTRACERS_useGMRedi = /* apply GM-Redi */
(PID.TID 0000.0001)                   F
(PID.TID 0000.0001)     ;
(PID.TID 0000.0001) PTRACERS_useDWNSLP = /* apply DOWN-SLOPE Flow */
(PID.TID 0000.0001)                   F
(PID.TID 0000.0001)     ;
(PID.TID 0000.0001) PTRACERS_useKPP = /* apply KPP scheme */
(PID.TID 0000.0001)                   T
(PID.TID 0000.0001)     ;
(PID.TID 0000.0001) PTRACERS_ref = /* Reference vertical profile */
(PID.TID 0000.0001)    24 @  0.000000000000000E+00              /* K =  1: 24 */
(PID.TID 0000.0001)     ;
(PID.TID 0000.0001) PTRACERS_EvPrRn =/* tracer conc. in Evap. & Rain */
(PID.TID 0000.0001)                 1.234567000000000E+05
(PID.TID 0000.0001)     ;
(PID.TID 0000.0001)  -----------------------------------
(PID.TID 0000.0001)  tracer number :   69
(PID.TID 0000.0001) PTRACERS_names = /* Tracer short name */
(PID.TID 0000.0001)               'Phy48'
(PID.TID 0000.0001)     ;
(PID.TID 0000.0001) PTRACERS_long_names = /* Tracer long name */
(PID.TID 0000.0001)               ''
(PID.TID 0000.0001)     ;
(PID.TID 0000.0001) PTRACERS_ioLabel = /* tracer IO Label */
(PID.TID 0000.0001)               '69'
(PID.TID 0000.0001)     ;
(PID.TID 0000.0001) PTRACERS_advScheme = /* Advection Scheme */
(PID.TID 0000.0001)                      33
(PID.TID 0000.0001)     ;
(PID.TID 0000.0001) PTRACERS_SOM_Advection = /* tracer uses SOM advection scheme */
(PID.TID 0000.0001)                   F
(PID.TID 0000.0001)     ;
(PID.TID 0000.0001) PTRACERS_ImplVertAdv = /* implicit vert. advection flag */
(PID.TID 0000.0001)                   F
(PID.TID 0000.0001)     ;
(PID.TID 0000.0001) PTRACERS_diffKh = /* Laplacian Diffusivity */
(PID.TID 0000.0001)                 0.000000000000000E+00
(PID.TID 0000.0001)     ;
(PID.TID 0000.0001) PTRACERS_diffK4 = /* Biharmonic Diffusivity */
(PID.TID 0000.0001)                 0.000000000000000E+00
(PID.TID 0000.0001)     ;
(PID.TID 0000.0001) PTRACERS_diffKrNr = /* Vertical Diffusivity */
(PID.TID 0000.0001)    24 @  1.000000000000000E-06              /* K =  1: 24 */
(PID.TID 0000.0001)     ;
(PID.TID 0000.0001) PTRACERS_useGMRedi = /* apply GM-Redi */
(PID.TID 0000.0001)                   F
(PID.TID 0000.0001)     ;
(PID.TID 0000.0001) PTRACERS_useDWNSLP = /* apply DOWN-SLOPE Flow */
(PID.TID 0000.0001)                   F
(PID.TID 0000.0001)     ;
(PID.TID 0000.0001) PTRACERS_useKPP = /* apply KPP scheme */
(PID.TID 0000.0001)                   T
(PID.TID 0000.0001)     ;
(PID.TID 0000.0001) PTRACERS_ref = /* Reference vertical profile */
(PID.TID 0000.0001)    24 @  0.000000000000000E+00              /* K =  1: 24 */
(PID.TID 0000.0001)     ;
(PID.TID 0000.0001) PTRACERS_EvPrRn =/* tracer conc. in Evap. & Rain */
(PID.TID 0000.0001)                 1.234567000000000E+05
(PID.TID 0000.0001)     ;
(PID.TID 0000.0001)  -----------------------------------
(PID.TID 0000.0001)  tracer number :   70
(PID.TID 0000.0001) PTRACERS_names = /* Tracer short name */
(PID.TID 0000.0001)               'Phy49'
(PID.TID 0000.0001)     ;
(PID.TID 0000.0001) PTRACERS_long_names = /* Tracer long name */
(PID.TID 0000.0001)               ''
(PID.TID 0000.0001)     ;
(PID.TID 0000.0001) PTRACERS_ioLabel = /* tracer IO Label */
(PID.TID 0000.0001)               '70'
(PID.TID 0000.0001)     ;
(PID.TID 0000.0001) PTRACERS_advScheme = /* Advection Scheme */
(PID.TID 0000.0001)                      33
(PID.TID 0000.0001)     ;
(PID.TID 0000.0001) PTRACERS_SOM_Advection = /* tracer uses SOM advection scheme */
(PID.TID 0000.0001)                   F
(PID.TID 0000.0001)     ;
(PID.TID 0000.0001) PTRACERS_ImplVertAdv = /* implicit vert. advection flag */
(PID.TID 0000.0001)                   F
(PID.TID 0000.0001)     ;
(PID.TID 0000.0001) PTRACERS_diffKh = /* Laplacian Diffusivity */
(PID.TID 0000.0001)                 0.000000000000000E+00
(PID.TID 0000.0001)     ;
(PID.TID 0000.0001) PTRACERS_diffK4 = /* Biharmonic Diffusivity */
(PID.TID 0000.0001)                 0.000000000000000E+00
(PID.TID 0000.0001)     ;
(PID.TID 0000.0001) PTRACERS_diffKrNr = /* Vertical Diffusivity */
(PID.TID 0000.0001)    24 @  1.000000000000000E-06              /* K =  1: 24 */
(PID.TID 0000.0001)     ;
(PID.TID 0000.0001) PTRACERS_useGMRedi = /* apply GM-Redi */
(PID.TID 0000.0001)                   F
(PID.TID 0000.0001)     ;
(PID.TID 0000.0001) PTRACERS_useDWNSLP = /* apply DOWN-SLOPE Flow */
(PID.TID 0000.0001)                   F
(PID.TID 0000.0001)     ;
(PID.TID 0000.0001) PTRACERS_useKPP = /* apply KPP scheme */
(PID.TID 0000.0001)                   T
(PID.TID 0000.0001)     ;
(PID.TID 0000.0001) PTRACERS_ref = /* Reference vertical profile */
(PID.TID 0000.0001)    24 @  0.000000000000000E+00              /* K =  1: 24 */
(PID.TID 0000.0001)     ;
(PID.TID 0000.0001) PTRACERS_EvPrRn =/* tracer conc. in Evap. & Rain */
(PID.TID 0000.0001)                 1.234567000000000E+05
(PID.TID 0000.0001)     ;
(PID.TID 0000.0001)  -----------------------------------
(PID.TID 0000.0001)  tracer number :   71
(PID.TID 0000.0001) PTRACERS_names = /* Tracer short name */
(PID.TID 0000.0001)               'Phy50'
(PID.TID 0000.0001)     ;
(PID.TID 0000.0001) PTRACERS_long_names = /* Tracer long name */
(PID.TID 0000.0001)               ''
(PID.TID 0000.0001)     ;
(PID.TID 0000.0001) PTRACERS_ioLabel = /* tracer IO Label */
(PID.TID 0000.0001)               '71'
(PID.TID 0000.0001)     ;
(PID.TID 0000.0001) PTRACERS_advScheme = /* Advection Scheme */
(PID.TID 0000.0001)                      33
(PID.TID 0000.0001)     ;
(PID.TID 0000.0001) PTRACERS_SOM_Advection = /* tracer uses SOM advection scheme */
(PID.TID 0000.0001)                   F
(PID.TID 0000.0001)     ;
(PID.TID 0000.0001) PTRACERS_ImplVertAdv = /* implicit vert. advection flag */
(PID.TID 0000.0001)                   F
(PID.TID 0000.0001)     ;
(PID.TID 0000.0001) PTRACERS_diffKh = /* Laplacian Diffusivity */
(PID.TID 0000.0001)                 0.000000000000000E+00
(PID.TID 0000.0001)     ;
(PID.TID 0000.0001) PTRACERS_diffK4 = /* Biharmonic Diffusivity */
(PID.TID 0000.0001)                 0.000000000000000E+00
(PID.TID 0000.0001)     ;
(PID.TID 0000.0001) PTRACERS_diffKrNr = /* Vertical Diffusivity */
(PID.TID 0000.0001)    24 @  1.000000000000000E-06              /* K =  1: 24 */
(PID.TID 0000.0001)     ;
(PID.TID 0000.0001) PTRACERS_useGMRedi = /* apply GM-Redi */
(PID.TID 0000.0001)                   F
(PID.TID 0000.0001)     ;
(PID.TID 0000.0001) PTRACERS_useDWNSLP = /* apply DOWN-SLOPE Flow */
(PID.TID 0000.0001)                   F
(PID.TID 0000.0001)     ;
(PID.TID 0000.0001) PTRACERS_useKPP = /* apply KPP scheme */
(PID.TID 0000.0001)                   T
(PID.TID 0000.0001)     ;
(PID.TID 0000.0001) PTRACERS_ref = /* Reference vertical profile */
(PID.TID 0000.0001)    24 @  0.000000000000000E+00              /* K =  1: 24 */
(PID.TID 0000.0001)     ;
(PID.TID 0000.0001) PTRACERS_EvPrRn =/* tracer conc. in Evap. & Rain */
(PID.TID 0000.0001)                 1.234567000000000E+05
(PID.TID 0000.0001)     ;
(PID.TID 0000.0001)  -----------------------------------
(PID.TID 0000.0001)  tracer number :   72
(PID.TID 0000.0001) PTRACERS_names = /* Tracer short name */
(PID.TID 0000.0001)               'Phy51'
(PID.TID 0000.0001)     ;
(PID.TID 0000.0001) PTRACERS_long_names = /* Tracer long name */
(PID.TID 0000.0001)               ''
(PID.TID 0000.0001)     ;
(PID.TID 0000.0001) PTRACERS_ioLabel = /* tracer IO Label */
(PID.TID 0000.0001)               '72'
(PID.TID 0000.0001)     ;
(PID.TID 0000.0001) PTRACERS_advScheme = /* Advection Scheme */
(PID.TID 0000.0001)                      33
(PID.TID 0000.0001)     ;
(PID.TID 0000.0001) PTRACERS_SOM_Advection = /* tracer uses SOM advection scheme */
(PID.TID 0000.0001)                   F
(PID.TID 0000.0001)     ;
(PID.TID 0000.0001) PTRACERS_ImplVertAdv = /* implicit vert. advection flag */
(PID.TID 0000.0001)                   F
(PID.TID 0000.0001)     ;
(PID.TID 0000.0001) PTRACERS_diffKh = /* Laplacian Diffusivity */
(PID.TID 0000.0001)                 0.000000000000000E+00
(PID.TID 0000.0001)     ;
(PID.TID 0000.0001) PTRACERS_diffK4 = /* Biharmonic Diffusivity */
(PID.TID 0000.0001)                 0.000000000000000E+00
(PID.TID 0000.0001)     ;
(PID.TID 0000.0001) PTRACERS_diffKrNr = /* Vertical Diffusivity */
(PID.TID 0000.0001)    24 @  1.000000000000000E-06              /* K =  1: 24 */
(PID.TID 0000.0001)     ;
(PID.TID 0000.0001) PTRACERS_useGMRedi = /* apply GM-Redi */
(PID.TID 0000.0001)                   F
(PID.TID 0000.0001)     ;
(PID.TID 0000.0001) PTRACERS_useDWNSLP = /* apply DOWN-SLOPE Flow */
(PID.TID 0000.0001)                   F
(PID.TID 0000.0001)     ;
(PID.TID 0000.0001) PTRACERS_useKPP = /* apply KPP scheme */
(PID.TID 0000.0001)                   T
(PID.TID 0000.0001)     ;
(PID.TID 0000.0001) PTRACERS_ref = /* Reference vertical profile */
(PID.TID 0000.0001)    24 @  0.000000000000000E+00              /* K =  1: 24 */
(PID.TID 0000.0001)     ;
(PID.TID 0000.0001) PTRACERS_EvPrRn =/* tracer conc. in Evap. & Rain */
(PID.TID 0000.0001)                 1.234567000000000E+05
(PID.TID 0000.0001)     ;
(PID.TID 0000.0001)  -----------------------------------
(PID.TID 0000.0001)  tracer number :   73
(PID.TID 0000.0001) PTRACERS_names = /* Tracer short name */
(PID.TID 0000.0001)               'Phy52'
(PID.TID 0000.0001)     ;
(PID.TID 0000.0001) PTRACERS_long_names = /* Tracer long name */
(PID.TID 0000.0001)               ''
(PID.TID 0000.0001)     ;
(PID.TID 0000.0001) PTRACERS_ioLabel = /* tracer IO Label */
(PID.TID 0000.0001)               '73'
(PID.TID 0000.0001)     ;
(PID.TID 0000.0001) PTRACERS_advScheme = /* Advection Scheme */
(PID.TID 0000.0001)                      33
(PID.TID 0000.0001)     ;
(PID.TID 0000.0001) PTRACERS_SOM_Advection = /* tracer uses SOM advection scheme */
(PID.TID 0000.0001)                   F
(PID.TID 0000.0001)     ;
(PID.TID 0000.0001) PTRACERS_ImplVertAdv = /* implicit vert. advection flag */
(PID.TID 0000.0001)                   F
(PID.TID 0000.0001)     ;
(PID.TID 0000.0001) PTRACERS_diffKh = /* Laplacian Diffusivity */
(PID.TID 0000.0001)                 0.000000000000000E+00
(PID.TID 0000.0001)     ;
(PID.TID 0000.0001) PTRACERS_diffK4 = /* Biharmonic Diffusivity */
(PID.TID 0000.0001)                 0.000000000000000E+00
(PID.TID 0000.0001)     ;
(PID.TID 0000.0001) PTRACERS_diffKrNr = /* Vertical Diffusivity */
(PID.TID 0000.0001)    24 @  1.000000000000000E-06              /* K =  1: 24 */
(PID.TID 0000.0001)     ;
(PID.TID 0000.0001) PTRACERS_useGMRedi = /* apply GM-Redi */
(PID.TID 0000.0001)                   F
(PID.TID 0000.0001)     ;
(PID.TID 0000.0001) PTRACERS_useDWNSLP = /* apply DOWN-SLOPE Flow */
(PID.TID 0000.0001)                   F
(PID.TID 0000.0001)     ;
(PID.TID 0000.0001) PTRACERS_useKPP = /* apply KPP scheme */
(PID.TID 0000.0001)                   T
(PID.TID 0000.0001)     ;
(PID.TID 0000.0001) PTRACERS_ref = /* Reference vertical profile */
(PID.TID 0000.0001)    24 @  0.000000000000000E+00              /* K =  1: 24 */
(PID.TID 0000.0001)     ;
(PID.TID 0000.0001) PTRACERS_EvPrRn =/* tracer conc. in Evap. & Rain */
(PID.TID 0000.0001)                 1.234567000000000E+05
(PID.TID 0000.0001)     ;
(PID.TID 0000.0001)  -----------------------------------
(PID.TID 0000.0001)  tracer number :   74
(PID.TID 0000.0001) PTRACERS_names = /* Tracer short name */
(PID.TID 0000.0001)               'Phy53'
(PID.TID 0000.0001)     ;
(PID.TID 0000.0001) PTRACERS_long_names = /* Tracer long name */
(PID.TID 0000.0001)               ''
(PID.TID 0000.0001)     ;
(PID.TID 0000.0001) PTRACERS_ioLabel = /* tracer IO Label */
(PID.TID 0000.0001)               '74'
(PID.TID 0000.0001)     ;
(PID.TID 0000.0001) PTRACERS_advScheme = /* Advection Scheme */
(PID.TID 0000.0001)                      33
(PID.TID 0000.0001)     ;
(PID.TID 0000.0001) PTRACERS_SOM_Advection = /* tracer uses SOM advection scheme */
(PID.TID 0000.0001)                   F
(PID.TID 0000.0001)     ;
(PID.TID 0000.0001) PTRACERS_ImplVertAdv = /* implicit vert. advection flag */
(PID.TID 0000.0001)                   F
(PID.TID 0000.0001)     ;
(PID.TID 0000.0001) PTRACERS_diffKh = /* Laplacian Diffusivity */
(PID.TID 0000.0001)                 0.000000000000000E+00
(PID.TID 0000.0001)     ;
(PID.TID 0000.0001) PTRACERS_diffK4 = /* Biharmonic Diffusivity */
(PID.TID 0000.0001)                 0.000000000000000E+00
(PID.TID 0000.0001)     ;
(PID.TID 0000.0001) PTRACERS_diffKrNr = /* Vertical Diffusivity */
(PID.TID 0000.0001)    24 @  1.000000000000000E-06              /* K =  1: 24 */
(PID.TID 0000.0001)     ;
(PID.TID 0000.0001) PTRACERS_useGMRedi = /* apply GM-Redi */
(PID.TID 0000.0001)                   F
(PID.TID 0000.0001)     ;
(PID.TID 0000.0001) PTRACERS_useDWNSLP = /* apply DOWN-SLOPE Flow */
(PID.TID 0000.0001)                   F
(PID.TID 0000.0001)     ;
(PID.TID 0000.0001) PTRACERS_useKPP = /* apply KPP scheme */
(PID.TID 0000.0001)                   T
(PID.TID 0000.0001)     ;
(PID.TID 0000.0001) PTRACERS_ref = /* Reference vertical profile */
(PID.TID 0000.0001)    24 @  0.000000000000000E+00              /* K =  1: 24 */
(PID.TID 0000.0001)     ;
(PID.TID 0000.0001) PTRACERS_EvPrRn =/* tracer conc. in Evap. & Rain */
(PID.TID 0000.0001)                 1.234567000000000E+05
(PID.TID 0000.0001)     ;
(PID.TID 0000.0001)  -----------------------------------
(PID.TID 0000.0001)  tracer number :   75
(PID.TID 0000.0001) PTRACERS_names = /* Tracer short name */
(PID.TID 0000.0001)               'Phy54'
(PID.TID 0000.0001)     ;
(PID.TID 0000.0001) PTRACERS_long_names = /* Tracer long name */
(PID.TID 0000.0001)               ''
(PID.TID 0000.0001)     ;
(PID.TID 0000.0001) PTRACERS_ioLabel = /* tracer IO Label */
(PID.TID 0000.0001)               '75'
(PID.TID 0000.0001)     ;
(PID.TID 0000.0001) PTRACERS_advScheme = /* Advection Scheme */
(PID.TID 0000.0001)                      33
(PID.TID 0000.0001)     ;
(PID.TID 0000.0001) PTRACERS_SOM_Advection = /* tracer uses SOM advection scheme */
(PID.TID 0000.0001)                   F
(PID.TID 0000.0001)     ;
(PID.TID 0000.0001) PTRACERS_ImplVertAdv = /* implicit vert. advection flag */
(PID.TID 0000.0001)                   F
(PID.TID 0000.0001)     ;
(PID.TID 0000.0001) PTRACERS_diffKh = /* Laplacian Diffusivity */
(PID.TID 0000.0001)                 0.000000000000000E+00
(PID.TID 0000.0001)     ;
(PID.TID 0000.0001) PTRACERS_diffK4 = /* Biharmonic Diffusivity */
(PID.TID 0000.0001)                 0.000000000000000E+00
(PID.TID 0000.0001)     ;
(PID.TID 0000.0001) PTRACERS_diffKrNr = /* Vertical Diffusivity */
(PID.TID 0000.0001)    24 @  1.000000000000000E-06              /* K =  1: 24 */
(PID.TID 0000.0001)     ;
(PID.TID 0000.0001) PTRACERS_useGMRedi = /* apply GM-Redi */
(PID.TID 0000.0001)                   F
(PID.TID 0000.0001)     ;
(PID.TID 0000.0001) PTRACERS_useDWNSLP = /* apply DOWN-SLOPE Flow */
(PID.TID 0000.0001)                   F
(PID.TID 0000.0001)     ;
(PID.TID 0000.0001) PTRACERS_useKPP = /* apply KPP scheme */
(PID.TID 0000.0001)                   T
(PID.TID 0000.0001)     ;
(PID.TID 0000.0001) PTRACERS_ref = /* Reference vertical profile */
(PID.TID 0000.0001)    24 @  0.000000000000000E+00              /* K =  1: 24 */
(PID.TID 0000.0001)     ;
(PID.TID 0000.0001) PTRACERS_EvPrRn =/* tracer conc. in Evap. & Rain */
(PID.TID 0000.0001)                 1.234567000000000E+05
(PID.TID 0000.0001)     ;
(PID.TID 0000.0001)  -----------------------------------
(PID.TID 0000.0001)  tracer number :   76
(PID.TID 0000.0001) PTRACERS_names = /* Tracer short name */
(PID.TID 0000.0001)               'Phy55'
(PID.TID 0000.0001)     ;
(PID.TID 0000.0001) PTRACERS_long_names = /* Tracer long name */
(PID.TID 0000.0001)               ''
(PID.TID 0000.0001)     ;
(PID.TID 0000.0001) PTRACERS_ioLabel = /* tracer IO Label */
(PID.TID 0000.0001)               '76'
(PID.TID 0000.0001)     ;
(PID.TID 0000.0001) PTRACERS_advScheme = /* Advection Scheme */
(PID.TID 0000.0001)                      33
(PID.TID 0000.0001)     ;
(PID.TID 0000.0001) PTRACERS_SOM_Advection = /* tracer uses SOM advection scheme */
(PID.TID 0000.0001)                   F
(PID.TID 0000.0001)     ;
(PID.TID 0000.0001) PTRACERS_ImplVertAdv = /* implicit vert. advection flag */
(PID.TID 0000.0001)                   F
(PID.TID 0000.0001)     ;
(PID.TID 0000.0001) PTRACERS_diffKh = /* Laplacian Diffusivity */
(PID.TID 0000.0001)                 0.000000000000000E+00
(PID.TID 0000.0001)     ;
(PID.TID 0000.0001) PTRACERS_diffK4 = /* Biharmonic Diffusivity */
(PID.TID 0000.0001)                 0.000000000000000E+00
(PID.TID 0000.0001)     ;
(PID.TID 0000.0001) PTRACERS_diffKrNr = /* Vertical Diffusivity */
(PID.TID 0000.0001)    24 @  1.000000000000000E-06              /* K =  1: 24 */
(PID.TID 0000.0001)     ;
(PID.TID 0000.0001) PTRACERS_useGMRedi = /* apply GM-Redi */
(PID.TID 0000.0001)                   F
(PID.TID 0000.0001)     ;
(PID.TID 0000.0001) PTRACERS_useDWNSLP = /* apply DOWN-SLOPE Flow */
(PID.TID 0000.0001)                   F
(PID.TID 0000.0001)     ;
(PID.TID 0000.0001) PTRACERS_useKPP = /* apply KPP scheme */
(PID.TID 0000.0001)                   T
(PID.TID 0000.0001)     ;
(PID.TID 0000.0001) PTRACERS_ref = /* Reference vertical profile */
(PID.TID 0000.0001)    24 @  0.000000000000000E+00              /* K =  1: 24 */
(PID.TID 0000.0001)     ;
(PID.TID 0000.0001) PTRACERS_EvPrRn =/* tracer conc. in Evap. & Rain */
(PID.TID 0000.0001)                 1.234567000000000E+05
(PID.TID 0000.0001)     ;
(PID.TID 0000.0001)  -----------------------------------
(PID.TID 0000.0001)  tracer number :   77
(PID.TID 0000.0001) PTRACERS_names = /* Tracer short name */
(PID.TID 0000.0001)               'Phy56'
(PID.TID 0000.0001)     ;
(PID.TID 0000.0001) PTRACERS_long_names = /* Tracer long name */
(PID.TID 0000.0001)               ''
(PID.TID 0000.0001)     ;
(PID.TID 0000.0001) PTRACERS_ioLabel = /* tracer IO Label */
(PID.TID 0000.0001)               '77'
(PID.TID 0000.0001)     ;
(PID.TID 0000.0001) PTRACERS_advScheme = /* Advection Scheme */
(PID.TID 0000.0001)                      33
(PID.TID 0000.0001)     ;
(PID.TID 0000.0001) PTRACERS_SOM_Advection = /* tracer uses SOM advection scheme */
(PID.TID 0000.0001)                   F
(PID.TID 0000.0001)     ;
(PID.TID 0000.0001) PTRACERS_ImplVertAdv = /* implicit vert. advection flag */
(PID.TID 0000.0001)                   F
(PID.TID 0000.0001)     ;
(PID.TID 0000.0001) PTRACERS_diffKh = /* Laplacian Diffusivity */
(PID.TID 0000.0001)                 0.000000000000000E+00
(PID.TID 0000.0001)     ;
(PID.TID 0000.0001) PTRACERS_diffK4 = /* Biharmonic Diffusivity */
(PID.TID 0000.0001)                 0.000000000000000E+00
(PID.TID 0000.0001)     ;
(PID.TID 0000.0001) PTRACERS_diffKrNr = /* Vertical Diffusivity */
(PID.TID 0000.0001)    24 @  1.000000000000000E-06              /* K =  1: 24 */
(PID.TID 0000.0001)     ;
(PID.TID 0000.0001) PTRACERS_useGMRedi = /* apply GM-Redi */
(PID.TID 0000.0001)                   F
(PID.TID 0000.0001)     ;
(PID.TID 0000.0001) PTRACERS_useDWNSLP = /* apply DOWN-SLOPE Flow */
(PID.TID 0000.0001)                   F
(PID.TID 0000.0001)     ;
(PID.TID 0000.0001) PTRACERS_useKPP = /* apply KPP scheme */
(PID.TID 0000.0001)                   T
(PID.TID 0000.0001)     ;
(PID.TID 0000.0001) PTRACERS_ref = /* Reference vertical profile */
(PID.TID 0000.0001)    24 @  0.000000000000000E+00              /* K =  1: 24 */
(PID.TID 0000.0001)     ;
(PID.TID 0000.0001) PTRACERS_EvPrRn =/* tracer conc. in Evap. & Rain */
(PID.TID 0000.0001)                 1.234567000000000E+05
(PID.TID 0000.0001)     ;
(PID.TID 0000.0001)  -----------------------------------
(PID.TID 0000.0001)  tracer number :   78
(PID.TID 0000.0001) PTRACERS_names = /* Tracer short name */
(PID.TID 0000.0001)               'Phy57'
(PID.TID 0000.0001)     ;
(PID.TID 0000.0001) PTRACERS_long_names = /* Tracer long name */
(PID.TID 0000.0001)               ''
(PID.TID 0000.0001)     ;
(PID.TID 0000.0001) PTRACERS_ioLabel = /* tracer IO Label */
(PID.TID 0000.0001)               '78'
(PID.TID 0000.0001)     ;
(PID.TID 0000.0001) PTRACERS_advScheme = /* Advection Scheme */
(PID.TID 0000.0001)                      33
(PID.TID 0000.0001)     ;
(PID.TID 0000.0001) PTRACERS_SOM_Advection = /* tracer uses SOM advection scheme */
(PID.TID 0000.0001)                   F
(PID.TID 0000.0001)     ;
(PID.TID 0000.0001) PTRACERS_ImplVertAdv = /* implicit vert. advection flag */
(PID.TID 0000.0001)                   F
(PID.TID 0000.0001)     ;
(PID.TID 0000.0001) PTRACERS_diffKh = /* Laplacian Diffusivity */
(PID.TID 0000.0001)                 0.000000000000000E+00
(PID.TID 0000.0001)     ;
(PID.TID 0000.0001) PTRACERS_diffK4 = /* Biharmonic Diffusivity */
(PID.TID 0000.0001)                 0.000000000000000E+00
(PID.TID 0000.0001)     ;
(PID.TID 0000.0001) PTRACERS_diffKrNr = /* Vertical Diffusivity */
(PID.TID 0000.0001)    24 @  1.000000000000000E-06              /* K =  1: 24 */
(PID.TID 0000.0001)     ;
(PID.TID 0000.0001) PTRACERS_useGMRedi = /* apply GM-Redi */
(PID.TID 0000.0001)                   F
(PID.TID 0000.0001)     ;
(PID.TID 0000.0001) PTRACERS_useDWNSLP = /* apply DOWN-SLOPE Flow */
(PID.TID 0000.0001)                   F
(PID.TID 0000.0001)     ;
(PID.TID 0000.0001) PTRACERS_useKPP = /* apply KPP scheme */
(PID.TID 0000.0001)                   T
(PID.TID 0000.0001)     ;
(PID.TID 0000.0001) PTRACERS_ref = /* Reference vertical profile */
(PID.TID 0000.0001)    24 @  0.000000000000000E+00              /* K =  1: 24 */
(PID.TID 0000.0001)     ;
(PID.TID 0000.0001) PTRACERS_EvPrRn =/* tracer conc. in Evap. & Rain */
(PID.TID 0000.0001)                 1.234567000000000E+05
(PID.TID 0000.0001)     ;
(PID.TID 0000.0001)  -----------------------------------
(PID.TID 0000.0001)  tracer number :   79
(PID.TID 0000.0001) PTRACERS_names = /* Tracer short name */
(PID.TID 0000.0001)               'Phy58'
(PID.TID 0000.0001)     ;
(PID.TID 0000.0001) PTRACERS_long_names = /* Tracer long name */
(PID.TID 0000.0001)               ''
(PID.TID 0000.0001)     ;
(PID.TID 0000.0001) PTRACERS_ioLabel = /* tracer IO Label */
(PID.TID 0000.0001)               '79'
(PID.TID 0000.0001)     ;
(PID.TID 0000.0001) PTRACERS_advScheme = /* Advection Scheme */
(PID.TID 0000.0001)                      33
(PID.TID 0000.0001)     ;
(PID.TID 0000.0001) PTRACERS_SOM_Advection = /* tracer uses SOM advection scheme */
(PID.TID 0000.0001)                   F
(PID.TID 0000.0001)     ;
(PID.TID 0000.0001) PTRACERS_ImplVertAdv = /* implicit vert. advection flag */
(PID.TID 0000.0001)                   F
(PID.TID 0000.0001)     ;
(PID.TID 0000.0001) PTRACERS_diffKh = /* Laplacian Diffusivity */
(PID.TID 0000.0001)                 0.000000000000000E+00
(PID.TID 0000.0001)     ;
(PID.TID 0000.0001) PTRACERS_diffK4 = /* Biharmonic Diffusivity */
(PID.TID 0000.0001)                 0.000000000000000E+00
(PID.TID 0000.0001)     ;
(PID.TID 0000.0001) PTRACERS_diffKrNr = /* Vertical Diffusivity */
(PID.TID 0000.0001)    24 @  1.000000000000000E-06              /* K =  1: 24 */
(PID.TID 0000.0001)     ;
(PID.TID 0000.0001) PTRACERS_useGMRedi = /* apply GM-Redi */
(PID.TID 0000.0001)                   F
(PID.TID 0000.0001)     ;
(PID.TID 0000.0001) PTRACERS_useDWNSLP = /* apply DOWN-SLOPE Flow */
(PID.TID 0000.0001)                   F
(PID.TID 0000.0001)     ;
(PID.TID 0000.0001) PTRACERS_useKPP = /* apply KPP scheme */
(PID.TID 0000.0001)                   T
(PID.TID 0000.0001)     ;
(PID.TID 0000.0001) PTRACERS_ref = /* Reference vertical profile */
(PID.TID 0000.0001)    24 @  0.000000000000000E+00              /* K =  1: 24 */
(PID.TID 0000.0001)     ;
(PID.TID 0000.0001) PTRACERS_EvPrRn =/* tracer conc. in Evap. & Rain */
(PID.TID 0000.0001)                 1.234567000000000E+05
(PID.TID 0000.0001)     ;
(PID.TID 0000.0001)  -----------------------------------
(PID.TID 0000.0001)  tracer number :   80
(PID.TID 0000.0001) PTRACERS_names = /* Tracer short name */
(PID.TID 0000.0001)               'Phy59'
(PID.TID 0000.0001)     ;
(PID.TID 0000.0001) PTRACERS_long_names = /* Tracer long name */
(PID.TID 0000.0001)               ''
(PID.TID 0000.0001)     ;
(PID.TID 0000.0001) PTRACERS_ioLabel = /* tracer IO Label */
(PID.TID 0000.0001)               '80'
(PID.TID 0000.0001)     ;
(PID.TID 0000.0001) PTRACERS_advScheme = /* Advection Scheme */
(PID.TID 0000.0001)                      33
(PID.TID 0000.0001)     ;
(PID.TID 0000.0001) PTRACERS_SOM_Advection = /* tracer uses SOM advection scheme */
(PID.TID 0000.0001)                   F
(PID.TID 0000.0001)     ;
(PID.TID 0000.0001) PTRACERS_ImplVertAdv = /* implicit vert. advection flag */
(PID.TID 0000.0001)                   F
(PID.TID 0000.0001)     ;
(PID.TID 0000.0001) PTRACERS_diffKh = /* Laplacian Diffusivity */
(PID.TID 0000.0001)                 0.000000000000000E+00
(PID.TID 0000.0001)     ;
(PID.TID 0000.0001) PTRACERS_diffK4 = /* Biharmonic Diffusivity */
(PID.TID 0000.0001)                 0.000000000000000E+00
(PID.TID 0000.0001)     ;
(PID.TID 0000.0001) PTRACERS_diffKrNr = /* Vertical Diffusivity */
(PID.TID 0000.0001)    24 @  1.000000000000000E-06              /* K =  1: 24 */
(PID.TID 0000.0001)     ;
(PID.TID 0000.0001) PTRACERS_useGMRedi = /* apply GM-Redi */
(PID.TID 0000.0001)                   F
(PID.TID 0000.0001)     ;
(PID.TID 0000.0001) PTRACERS_useDWNSLP = /* apply DOWN-SLOPE Flow */
(PID.TID 0000.0001)                   F
(PID.TID 0000.0001)     ;
(PID.TID 0000.0001) PTRACERS_useKPP = /* apply KPP scheme */
(PID.TID 0000.0001)                   T
(PID.TID 0000.0001)     ;
(PID.TID 0000.0001) PTRACERS_ref = /* Reference vertical profile */
(PID.TID 0000.0001)    24 @  0.000000000000000E+00              /* K =  1: 24 */
(PID.TID 0000.0001)     ;
(PID.TID 0000.0001) PTRACERS_EvPrRn =/* tracer conc. in Evap. & Rain */
(PID.TID 0000.0001)                 1.234567000000000E+05
(PID.TID 0000.0001)     ;
(PID.TID 0000.0001)  -----------------------------------
(PID.TID 0000.0001)  tracer number :   81
(PID.TID 0000.0001) PTRACERS_names = /* Tracer short name */
(PID.TID 0000.0001)               'Phy60'
(PID.TID 0000.0001)     ;
(PID.TID 0000.0001) PTRACERS_long_names = /* Tracer long name */
(PID.TID 0000.0001)               ''
(PID.TID 0000.0001)     ;
(PID.TID 0000.0001) PTRACERS_ioLabel = /* tracer IO Label */
(PID.TID 0000.0001)               '81'
(PID.TID 0000.0001)     ;
(PID.TID 0000.0001) PTRACERS_advScheme = /* Advection Scheme */
(PID.TID 0000.0001)                      33
(PID.TID 0000.0001)     ;
(PID.TID 0000.0001) PTRACERS_SOM_Advection = /* tracer uses SOM advection scheme */
(PID.TID 0000.0001)                   F
(PID.TID 0000.0001)     ;
(PID.TID 0000.0001) PTRACERS_ImplVertAdv = /* implicit vert. advection flag */
(PID.TID 0000.0001)                   F
(PID.TID 0000.0001)     ;
(PID.TID 0000.0001) PTRACERS_diffKh = /* Laplacian Diffusivity */
(PID.TID 0000.0001)                 0.000000000000000E+00
(PID.TID 0000.0001)     ;
(PID.TID 0000.0001) PTRACERS_diffK4 = /* Biharmonic Diffusivity */
(PID.TID 0000.0001)                 0.000000000000000E+00
(PID.TID 0000.0001)     ;
(PID.TID 0000.0001) PTRACERS_diffKrNr = /* Vertical Diffusivity */
(PID.TID 0000.0001)    24 @  1.000000000000000E-06              /* K =  1: 24 */
(PID.TID 0000.0001)     ;
(PID.TID 0000.0001) PTRACERS_useGMRedi = /* apply GM-Redi */
(PID.TID 0000.0001)                   F
(PID.TID 0000.0001)     ;
(PID.TID 0000.0001) PTRACERS_useDWNSLP = /* apply DOWN-SLOPE Flow */
(PID.TID 0000.0001)                   F
(PID.TID 0000.0001)     ;
(PID.TID 0000.0001) PTRACERS_useKPP = /* apply KPP scheme */
(PID.TID 0000.0001)                   T
(PID.TID 0000.0001)     ;
(PID.TID 0000.0001) PTRACERS_ref = /* Reference vertical profile */
(PID.TID 0000.0001)    24 @  0.000000000000000E+00              /* K =  1: 24 */
(PID.TID 0000.0001)     ;
(PID.TID 0000.0001) PTRACERS_EvPrRn =/* tracer conc. in Evap. & Rain */
(PID.TID 0000.0001)                 1.234567000000000E+05
(PID.TID 0000.0001)     ;
(PID.TID 0000.0001)  -----------------------------------
(PID.TID 0000.0001)  tracer number :   82
(PID.TID 0000.0001) PTRACERS_names = /* Tracer short name */
(PID.TID 0000.0001)               'Phy61'
(PID.TID 0000.0001)     ;
(PID.TID 0000.0001) PTRACERS_long_names = /* Tracer long name */
(PID.TID 0000.0001)               ''
(PID.TID 0000.0001)     ;
(PID.TID 0000.0001) PTRACERS_ioLabel = /* tracer IO Label */
(PID.TID 0000.0001)               '82'
(PID.TID 0000.0001)     ;
(PID.TID 0000.0001) PTRACERS_advScheme = /* Advection Scheme */
(PID.TID 0000.0001)                      33
(PID.TID 0000.0001)     ;
(PID.TID 0000.0001) PTRACERS_SOM_Advection = /* tracer uses SOM advection scheme */
(PID.TID 0000.0001)                   F
(PID.TID 0000.0001)     ;
(PID.TID 0000.0001) PTRACERS_ImplVertAdv = /* implicit vert. advection flag */
(PID.TID 0000.0001)                   F
(PID.TID 0000.0001)     ;
(PID.TID 0000.0001) PTRACERS_diffKh = /* Laplacian Diffusivity */
(PID.TID 0000.0001)                 0.000000000000000E+00
(PID.TID 0000.0001)     ;
(PID.TID 0000.0001) PTRACERS_diffK4 = /* Biharmonic Diffusivity */
(PID.TID 0000.0001)                 0.000000000000000E+00
(PID.TID 0000.0001)     ;
(PID.TID 0000.0001) PTRACERS_diffKrNr = /* Vertical Diffusivity */
(PID.TID 0000.0001)    24 @  1.000000000000000E-06              /* K =  1: 24 */
(PID.TID 0000.0001)     ;
(PID.TID 0000.0001) PTRACERS_useGMRedi = /* apply GM-Redi */
(PID.TID 0000.0001)                   F
(PID.TID 0000.0001)     ;
(PID.TID 0000.0001) PTRACERS_useDWNSLP = /* apply DOWN-SLOPE Flow */
(PID.TID 0000.0001)                   F
(PID.TID 0000.0001)     ;
(PID.TID 0000.0001) PTRACERS_useKPP = /* apply KPP scheme */
(PID.TID 0000.0001)                   T
(PID.TID 0000.0001)     ;
(PID.TID 0000.0001) PTRACERS_ref = /* Reference vertical profile */
(PID.TID 0000.0001)    24 @  0.000000000000000E+00              /* K =  1: 24 */
(PID.TID 0000.0001)     ;
(PID.TID 0000.0001) PTRACERS_EvPrRn =/* tracer conc. in Evap. & Rain */
(PID.TID 0000.0001)                 1.234567000000000E+05
(PID.TID 0000.0001)     ;
(PID.TID 0000.0001)  -----------------------------------
(PID.TID 0000.0001)  tracer number :   83
(PID.TID 0000.0001) PTRACERS_names = /* Tracer short name */
(PID.TID 0000.0001)               'Phy62'
(PID.TID 0000.0001)     ;
(PID.TID 0000.0001) PTRACERS_long_names = /* Tracer long name */
(PID.TID 0000.0001)               ''
(PID.TID 0000.0001)     ;
(PID.TID 0000.0001) PTRACERS_ioLabel = /* tracer IO Label */
(PID.TID 0000.0001)               '83'
(PID.TID 0000.0001)     ;
(PID.TID 0000.0001) PTRACERS_advScheme = /* Advection Scheme */
(PID.TID 0000.0001)                      33
(PID.TID 0000.0001)     ;
(PID.TID 0000.0001) PTRACERS_SOM_Advection = /* tracer uses SOM advection scheme */
(PID.TID 0000.0001)                   F
(PID.TID 0000.0001)     ;
(PID.TID 0000.0001) PTRACERS_ImplVertAdv = /* implicit vert. advection flag */
(PID.TID 0000.0001)                   F
(PID.TID 0000.0001)     ;
(PID.TID 0000.0001) PTRACERS_diffKh = /* Laplacian Diffusivity */
(PID.TID 0000.0001)                 0.000000000000000E+00
(PID.TID 0000.0001)     ;
(PID.TID 0000.0001) PTRACERS_diffK4 = /* Biharmonic Diffusivity */
(PID.TID 0000.0001)                 0.000000000000000E+00
(PID.TID 0000.0001)     ;
(PID.TID 0000.0001) PTRACERS_diffKrNr = /* Vertical Diffusivity */
(PID.TID 0000.0001)    24 @  1.000000000000000E-06              /* K =  1: 24 */
(PID.TID 0000.0001)     ;
(PID.TID 0000.0001) PTRACERS_useGMRedi = /* apply GM-Redi */
(PID.TID 0000.0001)                   F
(PID.TID 0000.0001)     ;
(PID.TID 0000.0001) PTRACERS_useDWNSLP = /* apply DOWN-SLOPE Flow */
(PID.TID 0000.0001)                   F
(PID.TID 0000.0001)     ;
(PID.TID 0000.0001) PTRACERS_useKPP = /* apply KPP scheme */
(PID.TID 0000.0001)                   T
(PID.TID 0000.0001)     ;
(PID.TID 0000.0001) PTRACERS_ref = /* Reference vertical profile */
(PID.TID 0000.0001)    24 @  0.000000000000000E+00              /* K =  1: 24 */
(PID.TID 0000.0001)     ;
(PID.TID 0000.0001) PTRACERS_EvPrRn =/* tracer conc. in Evap. & Rain */
(PID.TID 0000.0001)                 1.234567000000000E+05
(PID.TID 0000.0001)     ;
(PID.TID 0000.0001)  -----------------------------------
(PID.TID 0000.0001)  tracer number :   84
(PID.TID 0000.0001) PTRACERS_names = /* Tracer short name */
(PID.TID 0000.0001)               'Phy63'
(PID.TID 0000.0001)     ;
(PID.TID 0000.0001) PTRACERS_long_names = /* Tracer long name */
(PID.TID 0000.0001)               ''
(PID.TID 0000.0001)     ;
(PID.TID 0000.0001) PTRACERS_ioLabel = /* tracer IO Label */
(PID.TID 0000.0001)               '84'
(PID.TID 0000.0001)     ;
(PID.TID 0000.0001) PTRACERS_advScheme = /* Advection Scheme */
(PID.TID 0000.0001)                      33
(PID.TID 0000.0001)     ;
(PID.TID 0000.0001) PTRACERS_SOM_Advection = /* tracer uses SOM advection scheme */
(PID.TID 0000.0001)                   F
(PID.TID 0000.0001)     ;
(PID.TID 0000.0001) PTRACERS_ImplVertAdv = /* implicit vert. advection flag */
(PID.TID 0000.0001)                   F
(PID.TID 0000.0001)     ;
(PID.TID 0000.0001) PTRACERS_diffKh = /* Laplacian Diffusivity */
(PID.TID 0000.0001)                 0.000000000000000E+00
(PID.TID 0000.0001)     ;
(PID.TID 0000.0001) PTRACERS_diffK4 = /* Biharmonic Diffusivity */
(PID.TID 0000.0001)                 0.000000000000000E+00
(PID.TID 0000.0001)     ;
(PID.TID 0000.0001) PTRACERS_diffKrNr = /* Vertical Diffusivity */
(PID.TID 0000.0001)    24 @  1.000000000000000E-06              /* K =  1: 24 */
(PID.TID 0000.0001)     ;
(PID.TID 0000.0001) PTRACERS_useGMRedi = /* apply GM-Redi */
(PID.TID 0000.0001)                   F
(PID.TID 0000.0001)     ;
(PID.TID 0000.0001) PTRACERS_useDWNSLP = /* apply DOWN-SLOPE Flow */
(PID.TID 0000.0001)                   F
(PID.TID 0000.0001)     ;
(PID.TID 0000.0001) PTRACERS_useKPP = /* apply KPP scheme */
(PID.TID 0000.0001)                   T
(PID.TID 0000.0001)     ;
(PID.TID 0000.0001) PTRACERS_ref = /* Reference vertical profile */
(PID.TID 0000.0001)    24 @  0.000000000000000E+00              /* K =  1: 24 */
(PID.TID 0000.0001)     ;
(PID.TID 0000.0001) PTRACERS_EvPrRn =/* tracer conc. in Evap. & Rain */
(PID.TID 0000.0001)                 1.234567000000000E+05
(PID.TID 0000.0001)     ;
(PID.TID 0000.0001)  -----------------------------------
(PID.TID 0000.0001)  tracer number :   85
(PID.TID 0000.0001) PTRACERS_names = /* Tracer short name */
(PID.TID 0000.0001)               'Phy64'
(PID.TID 0000.0001)     ;
(PID.TID 0000.0001) PTRACERS_long_names = /* Tracer long name */
(PID.TID 0000.0001)               ''
(PID.TID 0000.0001)     ;
(PID.TID 0000.0001) PTRACERS_ioLabel = /* tracer IO Label */
(PID.TID 0000.0001)               '85'
(PID.TID 0000.0001)     ;
(PID.TID 0000.0001) PTRACERS_advScheme = /* Advection Scheme */
(PID.TID 0000.0001)                      33
(PID.TID 0000.0001)     ;
(PID.TID 0000.0001) PTRACERS_SOM_Advection = /* tracer uses SOM advection scheme */
(PID.TID 0000.0001)                   F
(PID.TID 0000.0001)     ;
(PID.TID 0000.0001) PTRACERS_ImplVertAdv = /* implicit vert. advection flag */
(PID.TID 0000.0001)                   F
(PID.TID 0000.0001)     ;
(PID.TID 0000.0001) PTRACERS_diffKh = /* Laplacian Diffusivity */
(PID.TID 0000.0001)                 0.000000000000000E+00
(PID.TID 0000.0001)     ;
(PID.TID 0000.0001) PTRACERS_diffK4 = /* Biharmonic Diffusivity */
(PID.TID 0000.0001)                 0.000000000000000E+00
(PID.TID 0000.0001)     ;
(PID.TID 0000.0001) PTRACERS_diffKrNr = /* Vertical Diffusivity */
(PID.TID 0000.0001)    24 @  1.000000000000000E-06              /* K =  1: 24 */
(PID.TID 0000.0001)     ;
(PID.TID 0000.0001) PTRACERS_useGMRedi = /* apply GM-Redi */
(PID.TID 0000.0001)                   F
(PID.TID 0000.0001)     ;
(PID.TID 0000.0001) PTRACERS_useDWNSLP = /* apply DOWN-SLOPE Flow */
(PID.TID 0000.0001)                   F
(PID.TID 0000.0001)     ;
(PID.TID 0000.0001) PTRACERS_useKPP = /* apply KPP scheme */
(PID.TID 0000.0001)                   T
(PID.TID 0000.0001)     ;
(PID.TID 0000.0001) PTRACERS_ref = /* Reference vertical profile */
(PID.TID 0000.0001)    24 @  0.000000000000000E+00              /* K =  1: 24 */
(PID.TID 0000.0001)     ;
(PID.TID 0000.0001) PTRACERS_EvPrRn =/* tracer conc. in Evap. & Rain */
(PID.TID 0000.0001)                 1.234567000000000E+05
(PID.TID 0000.0001)     ;
(PID.TID 0000.0001)  -----------------------------------
(PID.TID 0000.0001)  tracer number :   86
(PID.TID 0000.0001) PTRACERS_names = /* Tracer short name */
(PID.TID 0000.0001)               'Phy65'
(PID.TID 0000.0001)     ;
(PID.TID 0000.0001) PTRACERS_long_names = /* Tracer long name */
(PID.TID 0000.0001)               ''
(PID.TID 0000.0001)     ;
(PID.TID 0000.0001) PTRACERS_ioLabel = /* tracer IO Label */
(PID.TID 0000.0001)               '86'
(PID.TID 0000.0001)     ;
(PID.TID 0000.0001) PTRACERS_advScheme = /* Advection Scheme */
(PID.TID 0000.0001)                      33
(PID.TID 0000.0001)     ;
(PID.TID 0000.0001) PTRACERS_SOM_Advection = /* tracer uses SOM advection scheme */
(PID.TID 0000.0001)                   F
(PID.TID 0000.0001)     ;
(PID.TID 0000.0001) PTRACERS_ImplVertAdv = /* implicit vert. advection flag */
(PID.TID 0000.0001)                   F
(PID.TID 0000.0001)     ;
(PID.TID 0000.0001) PTRACERS_diffKh = /* Laplacian Diffusivity */
(PID.TID 0000.0001)                 0.000000000000000E+00
(PID.TID 0000.0001)     ;
(PID.TID 0000.0001) PTRACERS_diffK4 = /* Biharmonic Diffusivity */
(PID.TID 0000.0001)                 0.000000000000000E+00
(PID.TID 0000.0001)     ;
(PID.TID 0000.0001) PTRACERS_diffKrNr = /* Vertical Diffusivity */
(PID.TID 0000.0001)    24 @  1.000000000000000E-06              /* K =  1: 24 */
(PID.TID 0000.0001)     ;
(PID.TID 0000.0001) PTRACERS_useGMRedi = /* apply GM-Redi */
(PID.TID 0000.0001)                   F
(PID.TID 0000.0001)     ;
(PID.TID 0000.0001) PTRACERS_useDWNSLP = /* apply DOWN-SLOPE Flow */
(PID.TID 0000.0001)                   F
(PID.TID 0000.0001)     ;
(PID.TID 0000.0001) PTRACERS_useKPP = /* apply KPP scheme */
(PID.TID 0000.0001)                   T
(PID.TID 0000.0001)     ;
(PID.TID 0000.0001) PTRACERS_ref = /* Reference vertical profile */
(PID.TID 0000.0001)    24 @  0.000000000000000E+00              /* K =  1: 24 */
(PID.TID 0000.0001)     ;
(PID.TID 0000.0001) PTRACERS_EvPrRn =/* tracer conc. in Evap. & Rain */
(PID.TID 0000.0001)                 1.234567000000000E+05
(PID.TID 0000.0001)     ;
(PID.TID 0000.0001)  -----------------------------------
(PID.TID 0000.0001)  tracer number :   87
(PID.TID 0000.0001) PTRACERS_names = /* Tracer short name */
(PID.TID 0000.0001)               'Phy66'
(PID.TID 0000.0001)     ;
(PID.TID 0000.0001) PTRACERS_long_names = /* Tracer long name */
(PID.TID 0000.0001)               ''
(PID.TID 0000.0001)     ;
(PID.TID 0000.0001) PTRACERS_ioLabel = /* tracer IO Label */
(PID.TID 0000.0001)               '87'
(PID.TID 0000.0001)     ;
(PID.TID 0000.0001) PTRACERS_advScheme = /* Advection Scheme */
(PID.TID 0000.0001)                      33
(PID.TID 0000.0001)     ;
(PID.TID 0000.0001) PTRACERS_SOM_Advection = /* tracer uses SOM advection scheme */
(PID.TID 0000.0001)                   F
(PID.TID 0000.0001)     ;
(PID.TID 0000.0001) PTRACERS_ImplVertAdv = /* implicit vert. advection flag */
(PID.TID 0000.0001)                   F
(PID.TID 0000.0001)     ;
(PID.TID 0000.0001) PTRACERS_diffKh = /* Laplacian Diffusivity */
(PID.TID 0000.0001)                 0.000000000000000E+00
(PID.TID 0000.0001)     ;
(PID.TID 0000.0001) PTRACERS_diffK4 = /* Biharmonic Diffusivity */
(PID.TID 0000.0001)                 0.000000000000000E+00
(PID.TID 0000.0001)     ;
(PID.TID 0000.0001) PTRACERS_diffKrNr = /* Vertical Diffusivity */
(PID.TID 0000.0001)    24 @  1.000000000000000E-06              /* K =  1: 24 */
(PID.TID 0000.0001)     ;
(PID.TID 0000.0001) PTRACERS_useGMRedi = /* apply GM-Redi */
(PID.TID 0000.0001)                   F
(PID.TID 0000.0001)     ;
(PID.TID 0000.0001) PTRACERS_useDWNSLP = /* apply DOWN-SLOPE Flow */
(PID.TID 0000.0001)                   F
(PID.TID 0000.0001)     ;
(PID.TID 0000.0001) PTRACERS_useKPP = /* apply KPP scheme */
(PID.TID 0000.0001)                   T
(PID.TID 0000.0001)     ;
(PID.TID 0000.0001) PTRACERS_ref = /* Reference vertical profile */
(PID.TID 0000.0001)    24 @  0.000000000000000E+00              /* K =  1: 24 */
(PID.TID 0000.0001)     ;
(PID.TID 0000.0001) PTRACERS_EvPrRn =/* tracer conc. in Evap. & Rain */
(PID.TID 0000.0001)                 1.234567000000000E+05
(PID.TID 0000.0001)     ;
(PID.TID 0000.0001)  -----------------------------------
(PID.TID 0000.0001)  tracer number :   88
(PID.TID 0000.0001) PTRACERS_names = /* Tracer short name */
(PID.TID 0000.0001)               'Phy67'
(PID.TID 0000.0001)     ;
(PID.TID 0000.0001) PTRACERS_long_names = /* Tracer long name */
(PID.TID 0000.0001)               ''
(PID.TID 0000.0001)     ;
(PID.TID 0000.0001) PTRACERS_ioLabel = /* tracer IO Label */
(PID.TID 0000.0001)               '88'
(PID.TID 0000.0001)     ;
(PID.TID 0000.0001) PTRACERS_advScheme = /* Advection Scheme */
(PID.TID 0000.0001)                      33
(PID.TID 0000.0001)     ;
(PID.TID 0000.0001) PTRACERS_SOM_Advection = /* tracer uses SOM advection scheme */
(PID.TID 0000.0001)                   F
(PID.TID 0000.0001)     ;
(PID.TID 0000.0001) PTRACERS_ImplVertAdv = /* implicit vert. advection flag */
(PID.TID 0000.0001)                   F
(PID.TID 0000.0001)     ;
(PID.TID 0000.0001) PTRACERS_diffKh = /* Laplacian Diffusivity */
(PID.TID 0000.0001)                 0.000000000000000E+00
(PID.TID 0000.0001)     ;
(PID.TID 0000.0001) PTRACERS_diffK4 = /* Biharmonic Diffusivity */
(PID.TID 0000.0001)                 0.000000000000000E+00
(PID.TID 0000.0001)     ;
(PID.TID 0000.0001) PTRACERS_diffKrNr = /* Vertical Diffusivity */
(PID.TID 0000.0001)    24 @  1.000000000000000E-06              /* K =  1: 24 */
(PID.TID 0000.0001)     ;
(PID.TID 0000.0001) PTRACERS_useGMRedi = /* apply GM-Redi */
(PID.TID 0000.0001)                   F
(PID.TID 0000.0001)     ;
(PID.TID 0000.0001) PTRACERS_useDWNSLP = /* apply DOWN-SLOPE Flow */
(PID.TID 0000.0001)                   F
(PID.TID 0000.0001)     ;
(PID.TID 0000.0001) PTRACERS_useKPP = /* apply KPP scheme */
(PID.TID 0000.0001)                   T
(PID.TID 0000.0001)     ;
(PID.TID 0000.0001) PTRACERS_ref = /* Reference vertical profile */
(PID.TID 0000.0001)    24 @  0.000000000000000E+00              /* K =  1: 24 */
(PID.TID 0000.0001)     ;
(PID.TID 0000.0001) PTRACERS_EvPrRn =/* tracer conc. in Evap. & Rain */
(PID.TID 0000.0001)                 1.234567000000000E+05
(PID.TID 0000.0001)     ;
(PID.TID 0000.0001)  -----------------------------------
(PID.TID 0000.0001)  tracer number :   89
(PID.TID 0000.0001) PTRACERS_names = /* Tracer short name */
(PID.TID 0000.0001)               'Phy68'
(PID.TID 0000.0001)     ;
(PID.TID 0000.0001) PTRACERS_long_names = /* Tracer long name */
(PID.TID 0000.0001)               ''
(PID.TID 0000.0001)     ;
(PID.TID 0000.0001) PTRACERS_ioLabel = /* tracer IO Label */
(PID.TID 0000.0001)               '89'
(PID.TID 0000.0001)     ;
(PID.TID 0000.0001) PTRACERS_advScheme = /* Advection Scheme */
(PID.TID 0000.0001)                      33
(PID.TID 0000.0001)     ;
(PID.TID 0000.0001) PTRACERS_SOM_Advection = /* tracer uses SOM advection scheme */
(PID.TID 0000.0001)                   F
(PID.TID 0000.0001)     ;
(PID.TID 0000.0001) PTRACERS_ImplVertAdv = /* implicit vert. advection flag */
(PID.TID 0000.0001)                   F
(PID.TID 0000.0001)     ;
(PID.TID 0000.0001) PTRACERS_diffKh = /* Laplacian Diffusivity */
(PID.TID 0000.0001)                 0.000000000000000E+00
(PID.TID 0000.0001)     ;
(PID.TID 0000.0001) PTRACERS_diffK4 = /* Biharmonic Diffusivity */
(PID.TID 0000.0001)                 0.000000000000000E+00
(PID.TID 0000.0001)     ;
(PID.TID 0000.0001) PTRACERS_diffKrNr = /* Vertical Diffusivity */
(PID.TID 0000.0001)    24 @  1.000000000000000E-06              /* K =  1: 24 */
(PID.TID 0000.0001)     ;
(PID.TID 0000.0001) PTRACERS_useGMRedi = /* apply GM-Redi */
(PID.TID 0000.0001)                   F
(PID.TID 0000.0001)     ;
(PID.TID 0000.0001) PTRACERS_useDWNSLP = /* apply DOWN-SLOPE Flow */
(PID.TID 0000.0001)                   F
(PID.TID 0000.0001)     ;
(PID.TID 0000.0001) PTRACERS_useKPP = /* apply KPP scheme */
(PID.TID 0000.0001)                   T
(PID.TID 0000.0001)     ;
(PID.TID 0000.0001) PTRACERS_ref = /* Reference vertical profile */
(PID.TID 0000.0001)    24 @  0.000000000000000E+00              /* K =  1: 24 */
(PID.TID 0000.0001)     ;
(PID.TID 0000.0001) PTRACERS_EvPrRn =/* tracer conc. in Evap. & Rain */
(PID.TID 0000.0001)                 1.234567000000000E+05
(PID.TID 0000.0001)     ;
(PID.TID 0000.0001)  -----------------------------------
(PID.TID 0000.0001)  tracer number :   90
(PID.TID 0000.0001) PTRACERS_names = /* Tracer short name */
(PID.TID 0000.0001)               'Phy69'
(PID.TID 0000.0001)     ;
(PID.TID 0000.0001) PTRACERS_long_names = /* Tracer long name */
(PID.TID 0000.0001)               ''
(PID.TID 0000.0001)     ;
(PID.TID 0000.0001) PTRACERS_ioLabel = /* tracer IO Label */
(PID.TID 0000.0001)               '90'
(PID.TID 0000.0001)     ;
(PID.TID 0000.0001) PTRACERS_advScheme = /* Advection Scheme */
(PID.TID 0000.0001)                      33
(PID.TID 0000.0001)     ;
(PID.TID 0000.0001) PTRACERS_SOM_Advection = /* tracer uses SOM advection scheme */
(PID.TID 0000.0001)                   F
(PID.TID 0000.0001)     ;
(PID.TID 0000.0001) PTRACERS_ImplVertAdv = /* implicit vert. advection flag */
(PID.TID 0000.0001)                   F
(PID.TID 0000.0001)     ;
(PID.TID 0000.0001) PTRACERS_diffKh = /* Laplacian Diffusivity */
(PID.TID 0000.0001)                 0.000000000000000E+00
(PID.TID 0000.0001)     ;
(PID.TID 0000.0001) PTRACERS_diffK4 = /* Biharmonic Diffusivity */
(PID.TID 0000.0001)                 0.000000000000000E+00
(PID.TID 0000.0001)     ;
(PID.TID 0000.0001) PTRACERS_diffKrNr = /* Vertical Diffusivity */
(PID.TID 0000.0001)    24 @  1.000000000000000E-06              /* K =  1: 24 */
(PID.TID 0000.0001)     ;
(PID.TID 0000.0001) PTRACERS_useGMRedi = /* apply GM-Redi */
(PID.TID 0000.0001)                   F
(PID.TID 0000.0001)     ;
(PID.TID 0000.0001) PTRACERS_useDWNSLP = /* apply DOWN-SLOPE Flow */
(PID.TID 0000.0001)                   F
(PID.TID 0000.0001)     ;
(PID.TID 0000.0001) PTRACERS_useKPP = /* apply KPP scheme */
(PID.TID 0000.0001)                   T
(PID.TID 0000.0001)     ;
(PID.TID 0000.0001) PTRACERS_ref = /* Reference vertical profile */
(PID.TID 0000.0001)    24 @  0.000000000000000E+00              /* K =  1: 24 */
(PID.TID 0000.0001)     ;
(PID.TID 0000.0001) PTRACERS_EvPrRn =/* tracer conc. in Evap. & Rain */
(PID.TID 0000.0001)                 1.234567000000000E+05
(PID.TID 0000.0001)     ;
(PID.TID 0000.0001)  -----------------------------------
(PID.TID 0000.0001)  tracer number :   91
(PID.TID 0000.0001) PTRACERS_names = /* Tracer short name */
(PID.TID 0000.0001)               'Phy70'
(PID.TID 0000.0001)     ;
(PID.TID 0000.0001) PTRACERS_long_names = /* Tracer long name */
(PID.TID 0000.0001)               ''
(PID.TID 0000.0001)     ;
(PID.TID 0000.0001) PTRACERS_ioLabel = /* tracer IO Label */
(PID.TID 0000.0001)               '91'
(PID.TID 0000.0001)     ;
(PID.TID 0000.0001) PTRACERS_advScheme = /* Advection Scheme */
(PID.TID 0000.0001)                      33
(PID.TID 0000.0001)     ;
(PID.TID 0000.0001) PTRACERS_SOM_Advection = /* tracer uses SOM advection scheme */
(PID.TID 0000.0001)                   F
(PID.TID 0000.0001)     ;
(PID.TID 0000.0001) PTRACERS_ImplVertAdv = /* implicit vert. advection flag */
(PID.TID 0000.0001)                   F
(PID.TID 0000.0001)     ;
(PID.TID 0000.0001) PTRACERS_diffKh = /* Laplacian Diffusivity */
(PID.TID 0000.0001)                 0.000000000000000E+00
(PID.TID 0000.0001)     ;
(PID.TID 0000.0001) PTRACERS_diffK4 = /* Biharmonic Diffusivity */
(PID.TID 0000.0001)                 0.000000000000000E+00
(PID.TID 0000.0001)     ;
(PID.TID 0000.0001) PTRACERS_diffKrNr = /* Vertical Diffusivity */
(PID.TID 0000.0001)    24 @  1.000000000000000E-06              /* K =  1: 24 */
(PID.TID 0000.0001)     ;
(PID.TID 0000.0001) PTRACERS_useGMRedi = /* apply GM-Redi */
(PID.TID 0000.0001)                   F
(PID.TID 0000.0001)     ;
(PID.TID 0000.0001) PTRACERS_useDWNSLP = /* apply DOWN-SLOPE Flow */
(PID.TID 0000.0001)                   F
(PID.TID 0000.0001)     ;
(PID.TID 0000.0001) PTRACERS_useKPP = /* apply KPP scheme */
(PID.TID 0000.0001)                   T
(PID.TID 0000.0001)     ;
(PID.TID 0000.0001) PTRACERS_ref = /* Reference vertical profile */
(PID.TID 0000.0001)    24 @  0.000000000000000E+00              /* K =  1: 24 */
(PID.TID 0000.0001)     ;
(PID.TID 0000.0001) PTRACERS_EvPrRn =/* tracer conc. in Evap. & Rain */
(PID.TID 0000.0001)                 1.234567000000000E+05
(PID.TID 0000.0001)     ;
(PID.TID 0000.0001)  -----------------------------------
(PID.TID 0000.0001)  tracer number :   92
(PID.TID 0000.0001) PTRACERS_names = /* Tracer short name */
(PID.TID 0000.0001)               'Phy71'
(PID.TID 0000.0001)     ;
(PID.TID 0000.0001) PTRACERS_long_names = /* Tracer long name */
(PID.TID 0000.0001)               ''
(PID.TID 0000.0001)     ;
(PID.TID 0000.0001) PTRACERS_ioLabel = /* tracer IO Label */
(PID.TID 0000.0001)               '92'
(PID.TID 0000.0001)     ;
(PID.TID 0000.0001) PTRACERS_advScheme = /* Advection Scheme */
(PID.TID 0000.0001)                      33
(PID.TID 0000.0001)     ;
(PID.TID 0000.0001) PTRACERS_SOM_Advection = /* tracer uses SOM advection scheme */
(PID.TID 0000.0001)                   F
(PID.TID 0000.0001)     ;
(PID.TID 0000.0001) PTRACERS_ImplVertAdv = /* implicit vert. advection flag */
(PID.TID 0000.0001)                   F
(PID.TID 0000.0001)     ;
(PID.TID 0000.0001) PTRACERS_diffKh = /* Laplacian Diffusivity */
(PID.TID 0000.0001)                 0.000000000000000E+00
(PID.TID 0000.0001)     ;
(PID.TID 0000.0001) PTRACERS_diffK4 = /* Biharmonic Diffusivity */
(PID.TID 0000.0001)                 0.000000000000000E+00
(PID.TID 0000.0001)     ;
(PID.TID 0000.0001) PTRACERS_diffKrNr = /* Vertical Diffusivity */
(PID.TID 0000.0001)    24 @  1.000000000000000E-06              /* K =  1: 24 */
(PID.TID 0000.0001)     ;
(PID.TID 0000.0001) PTRACERS_useGMRedi = /* apply GM-Redi */
(PID.TID 0000.0001)                   F
(PID.TID 0000.0001)     ;
(PID.TID 0000.0001) PTRACERS_useDWNSLP = /* apply DOWN-SLOPE Flow */
(PID.TID 0000.0001)                   F
(PID.TID 0000.0001)     ;
(PID.TID 0000.0001) PTRACERS_useKPP = /* apply KPP scheme */
(PID.TID 0000.0001)                   T
(PID.TID 0000.0001)     ;
(PID.TID 0000.0001) PTRACERS_ref = /* Reference vertical profile */
(PID.TID 0000.0001)    24 @  0.000000000000000E+00              /* K =  1: 24 */
(PID.TID 0000.0001)     ;
(PID.TID 0000.0001) PTRACERS_EvPrRn =/* tracer conc. in Evap. & Rain */
(PID.TID 0000.0001)                 1.234567000000000E+05
(PID.TID 0000.0001)     ;
(PID.TID 0000.0001)  -----------------------------------
(PID.TID 0000.0001)  tracer number :   93
(PID.TID 0000.0001) PTRACERS_names = /* Tracer short name */
(PID.TID 0000.0001)               'Phy72'
(PID.TID 0000.0001)     ;
(PID.TID 0000.0001) PTRACERS_long_names = /* Tracer long name */
(PID.TID 0000.0001)               ''
(PID.TID 0000.0001)     ;
(PID.TID 0000.0001) PTRACERS_ioLabel = /* tracer IO Label */
(PID.TID 0000.0001)               '93'
(PID.TID 0000.0001)     ;
(PID.TID 0000.0001) PTRACERS_advScheme = /* Advection Scheme */
(PID.TID 0000.0001)                      33
(PID.TID 0000.0001)     ;
(PID.TID 0000.0001) PTRACERS_SOM_Advection = /* tracer uses SOM advection scheme */
(PID.TID 0000.0001)                   F
(PID.TID 0000.0001)     ;
(PID.TID 0000.0001) PTRACERS_ImplVertAdv = /* implicit vert. advection flag */
(PID.TID 0000.0001)                   F
(PID.TID 0000.0001)     ;
(PID.TID 0000.0001) PTRACERS_diffKh = /* Laplacian Diffusivity */
(PID.TID 0000.0001)                 0.000000000000000E+00
(PID.TID 0000.0001)     ;
(PID.TID 0000.0001) PTRACERS_diffK4 = /* Biharmonic Diffusivity */
(PID.TID 0000.0001)                 0.000000000000000E+00
(PID.TID 0000.0001)     ;
(PID.TID 0000.0001) PTRACERS_diffKrNr = /* Vertical Diffusivity */
(PID.TID 0000.0001)    24 @  1.000000000000000E-06              /* K =  1: 24 */
(PID.TID 0000.0001)     ;
(PID.TID 0000.0001) PTRACERS_useGMRedi = /* apply GM-Redi */
(PID.TID 0000.0001)                   F
(PID.TID 0000.0001)     ;
(PID.TID 0000.0001) PTRACERS_useDWNSLP = /* apply DOWN-SLOPE Flow */
(PID.TID 0000.0001)                   F
(PID.TID 0000.0001)     ;
(PID.TID 0000.0001) PTRACERS_useKPP = /* apply KPP scheme */
(PID.TID 0000.0001)                   T
(PID.TID 0000.0001)     ;
(PID.TID 0000.0001) PTRACERS_ref = /* Reference vertical profile */
(PID.TID 0000.0001)    24 @  0.000000000000000E+00              /* K =  1: 24 */
(PID.TID 0000.0001)     ;
(PID.TID 0000.0001) PTRACERS_EvPrRn =/* tracer conc. in Evap. & Rain */
(PID.TID 0000.0001)                 1.234567000000000E+05
(PID.TID 0000.0001)     ;
(PID.TID 0000.0001)  -----------------------------------
(PID.TID 0000.0001)  tracer number :   94
(PID.TID 0000.0001) PTRACERS_names = /* Tracer short name */
(PID.TID 0000.0001)               'Phy73'
(PID.TID 0000.0001)     ;
(PID.TID 0000.0001) PTRACERS_long_names = /* Tracer long name */
(PID.TID 0000.0001)               ''
(PID.TID 0000.0001)     ;
(PID.TID 0000.0001) PTRACERS_ioLabel = /* tracer IO Label */
(PID.TID 0000.0001)               '94'
(PID.TID 0000.0001)     ;
(PID.TID 0000.0001) PTRACERS_advScheme = /* Advection Scheme */
(PID.TID 0000.0001)                      33
(PID.TID 0000.0001)     ;
(PID.TID 0000.0001) PTRACERS_SOM_Advection = /* tracer uses SOM advection scheme */
(PID.TID 0000.0001)                   F
(PID.TID 0000.0001)     ;
(PID.TID 0000.0001) PTRACERS_ImplVertAdv = /* implicit vert. advection flag */
(PID.TID 0000.0001)                   F
(PID.TID 0000.0001)     ;
(PID.TID 0000.0001) PTRACERS_diffKh = /* Laplacian Diffusivity */
(PID.TID 0000.0001)                 0.000000000000000E+00
(PID.TID 0000.0001)     ;
(PID.TID 0000.0001) PTRACERS_diffK4 = /* Biharmonic Diffusivity */
(PID.TID 0000.0001)                 0.000000000000000E+00
(PID.TID 0000.0001)     ;
(PID.TID 0000.0001) PTRACERS_diffKrNr = /* Vertical Diffusivity */
(PID.TID 0000.0001)    24 @  1.000000000000000E-06              /* K =  1: 24 */
(PID.TID 0000.0001)     ;
(PID.TID 0000.0001) PTRACERS_useGMRedi = /* apply GM-Redi */
(PID.TID 0000.0001)                   F
(PID.TID 0000.0001)     ;
(PID.TID 0000.0001) PTRACERS_useDWNSLP = /* apply DOWN-SLOPE Flow */
(PID.TID 0000.0001)                   F
(PID.TID 0000.0001)     ;
(PID.TID 0000.0001) PTRACERS_useKPP = /* apply KPP scheme */
(PID.TID 0000.0001)                   T
(PID.TID 0000.0001)     ;
(PID.TID 0000.0001) PTRACERS_ref = /* Reference vertical profile */
(PID.TID 0000.0001)    24 @  0.000000000000000E+00              /* K =  1: 24 */
(PID.TID 0000.0001)     ;
(PID.TID 0000.0001) PTRACERS_EvPrRn =/* tracer conc. in Evap. & Rain */
(PID.TID 0000.0001)                 1.234567000000000E+05
(PID.TID 0000.0001)     ;
(PID.TID 0000.0001)  -----------------------------------
(PID.TID 0000.0001)  tracer number :   95
(PID.TID 0000.0001) PTRACERS_names = /* Tracer short name */
(PID.TID 0000.0001)               'Phy74'
(PID.TID 0000.0001)     ;
(PID.TID 0000.0001) PTRACERS_long_names = /* Tracer long name */
(PID.TID 0000.0001)               ''
(PID.TID 0000.0001)     ;
(PID.TID 0000.0001) PTRACERS_ioLabel = /* tracer IO Label */
(PID.TID 0000.0001)               '95'
(PID.TID 0000.0001)     ;
(PID.TID 0000.0001) PTRACERS_advScheme = /* Advection Scheme */
(PID.TID 0000.0001)                      33
(PID.TID 0000.0001)     ;
(PID.TID 0000.0001) PTRACERS_SOM_Advection = /* tracer uses SOM advection scheme */
(PID.TID 0000.0001)                   F
(PID.TID 0000.0001)     ;
(PID.TID 0000.0001) PTRACERS_ImplVertAdv = /* implicit vert. advection flag */
(PID.TID 0000.0001)                   F
(PID.TID 0000.0001)     ;
(PID.TID 0000.0001) PTRACERS_diffKh = /* Laplacian Diffusivity */
(PID.TID 0000.0001)                 0.000000000000000E+00
(PID.TID 0000.0001)     ;
(PID.TID 0000.0001) PTRACERS_diffK4 = /* Biharmonic Diffusivity */
(PID.TID 0000.0001)                 0.000000000000000E+00
(PID.TID 0000.0001)     ;
(PID.TID 0000.0001) PTRACERS_diffKrNr = /* Vertical Diffusivity */
(PID.TID 0000.0001)    24 @  1.000000000000000E-06              /* K =  1: 24 */
(PID.TID 0000.0001)     ;
(PID.TID 0000.0001) PTRACERS_useGMRedi = /* apply GM-Redi */
(PID.TID 0000.0001)                   F
(PID.TID 0000.0001)     ;
(PID.TID 0000.0001) PTRACERS_useDWNSLP = /* apply DOWN-SLOPE Flow */
(PID.TID 0000.0001)                   F
(PID.TID 0000.0001)     ;
(PID.TID 0000.0001) PTRACERS_useKPP = /* apply KPP scheme */
(PID.TID 0000.0001)                   T
(PID.TID 0000.0001)     ;
(PID.TID 0000.0001) PTRACERS_ref = /* Reference vertical profile */
(PID.TID 0000.0001)    24 @  0.000000000000000E+00              /* K =  1: 24 */
(PID.TID 0000.0001)     ;
(PID.TID 0000.0001) PTRACERS_EvPrRn =/* tracer conc. in Evap. & Rain */
(PID.TID 0000.0001)                 1.234567000000000E+05
(PID.TID 0000.0001)     ;
(PID.TID 0000.0001)  -----------------------------------
(PID.TID 0000.0001)  tracer number :   96
(PID.TID 0000.0001) PTRACERS_names = /* Tracer short name */
(PID.TID 0000.0001)               'Phy75'
(PID.TID 0000.0001)     ;
(PID.TID 0000.0001) PTRACERS_long_names = /* Tracer long name */
(PID.TID 0000.0001)               ''
(PID.TID 0000.0001)     ;
(PID.TID 0000.0001) PTRACERS_ioLabel = /* tracer IO Label */
(PID.TID 0000.0001)               '96'
(PID.TID 0000.0001)     ;
(PID.TID 0000.0001) PTRACERS_advScheme = /* Advection Scheme */
(PID.TID 0000.0001)                      33
(PID.TID 0000.0001)     ;
(PID.TID 0000.0001) PTRACERS_SOM_Advection = /* tracer uses SOM advection scheme */
(PID.TID 0000.0001)                   F
(PID.TID 0000.0001)     ;
(PID.TID 0000.0001) PTRACERS_ImplVertAdv = /* implicit vert. advection flag */
(PID.TID 0000.0001)                   F
(PID.TID 0000.0001)     ;
(PID.TID 0000.0001) PTRACERS_diffKh = /* Laplacian Diffusivity */
(PID.TID 0000.0001)                 0.000000000000000E+00
(PID.TID 0000.0001)     ;
(PID.TID 0000.0001) PTRACERS_diffK4 = /* Biharmonic Diffusivity */
(PID.TID 0000.0001)                 0.000000000000000E+00
(PID.TID 0000.0001)     ;
(PID.TID 0000.0001) PTRACERS_diffKrNr = /* Vertical Diffusivity */
(PID.TID 0000.0001)    24 @  1.000000000000000E-06              /* K =  1: 24 */
(PID.TID 0000.0001)     ;
(PID.TID 0000.0001) PTRACERS_useGMRedi = /* apply GM-Redi */
(PID.TID 0000.0001)                   F
(PID.TID 0000.0001)     ;
(PID.TID 0000.0001) PTRACERS_useDWNSLP = /* apply DOWN-SLOPE Flow */
(PID.TID 0000.0001)                   F
(PID.TID 0000.0001)     ;
(PID.TID 0000.0001) PTRACERS_useKPP = /* apply KPP scheme */
(PID.TID 0000.0001)                   T
(PID.TID 0000.0001)     ;
(PID.TID 0000.0001) PTRACERS_ref = /* Reference vertical profile */
(PID.TID 0000.0001)    24 @  0.000000000000000E+00              /* K =  1: 24 */
(PID.TID 0000.0001)     ;
(PID.TID 0000.0001) PTRACERS_EvPrRn =/* tracer conc. in Evap. & Rain */
(PID.TID 0000.0001)                 1.234567000000000E+05
(PID.TID 0000.0001)     ;
(PID.TID 0000.0001)  -----------------------------------
(PID.TID 0000.0001)  tracer number :   97
(PID.TID 0000.0001) PTRACERS_names = /* Tracer short name */
(PID.TID 0000.0001)               'Phy76'
(PID.TID 0000.0001)     ;
(PID.TID 0000.0001) PTRACERS_long_names = /* Tracer long name */
(PID.TID 0000.0001)               ''
(PID.TID 0000.0001)     ;
(PID.TID 0000.0001) PTRACERS_ioLabel = /* tracer IO Label */
(PID.TID 0000.0001)               '97'
(PID.TID 0000.0001)     ;
(PID.TID 0000.0001) PTRACERS_advScheme = /* Advection Scheme */
(PID.TID 0000.0001)                      33
(PID.TID 0000.0001)     ;
(PID.TID 0000.0001) PTRACERS_SOM_Advection = /* tracer uses SOM advection scheme */
(PID.TID 0000.0001)                   F
(PID.TID 0000.0001)     ;
(PID.TID 0000.0001) PTRACERS_ImplVertAdv = /* implicit vert. advection flag */
(PID.TID 0000.0001)                   F
(PID.TID 0000.0001)     ;
(PID.TID 0000.0001) PTRACERS_diffKh = /* Laplacian Diffusivity */
(PID.TID 0000.0001)                 0.000000000000000E+00
(PID.TID 0000.0001)     ;
(PID.TID 0000.0001) PTRACERS_diffK4 = /* Biharmonic Diffusivity */
(PID.TID 0000.0001)                 0.000000000000000E+00
(PID.TID 0000.0001)     ;
(PID.TID 0000.0001) PTRACERS_diffKrNr = /* Vertical Diffusivity */
(PID.TID 0000.0001)    24 @  1.000000000000000E-06              /* K =  1: 24 */
(PID.TID 0000.0001)     ;
(PID.TID 0000.0001) PTRACERS_useGMRedi = /* apply GM-Redi */
(PID.TID 0000.0001)                   F
(PID.TID 0000.0001)     ;
(PID.TID 0000.0001) PTRACERS_useDWNSLP = /* apply DOWN-SLOPE Flow */
(PID.TID 0000.0001)                   F
(PID.TID 0000.0001)     ;
(PID.TID 0000.0001) PTRACERS_useKPP = /* apply KPP scheme */
(PID.TID 0000.0001)                   T
(PID.TID 0000.0001)     ;
(PID.TID 0000.0001) PTRACERS_ref = /* Reference vertical profile */
(PID.TID 0000.0001)    24 @  0.000000000000000E+00              /* K =  1: 24 */
(PID.TID 0000.0001)     ;
(PID.TID 0000.0001) PTRACERS_EvPrRn =/* tracer conc. in Evap. & Rain */
(PID.TID 0000.0001)                 1.234567000000000E+05
(PID.TID 0000.0001)     ;
(PID.TID 0000.0001)  -----------------------------------
(PID.TID 0000.0001)  tracer number :   98
(PID.TID 0000.0001) PTRACERS_names = /* Tracer short name */
(PID.TID 0000.0001)               'Phy77'
(PID.TID 0000.0001)     ;
(PID.TID 0000.0001) PTRACERS_long_names = /* Tracer long name */
(PID.TID 0000.0001)               ''
(PID.TID 0000.0001)     ;
(PID.TID 0000.0001) PTRACERS_ioLabel = /* tracer IO Label */
(PID.TID 0000.0001)               '98'
(PID.TID 0000.0001)     ;
(PID.TID 0000.0001) PTRACERS_advScheme = /* Advection Scheme */
(PID.TID 0000.0001)                      33
(PID.TID 0000.0001)     ;
(PID.TID 0000.0001) PTRACERS_SOM_Advection = /* tracer uses SOM advection scheme */
(PID.TID 0000.0001)                   F
(PID.TID 0000.0001)     ;
(PID.TID 0000.0001) PTRACERS_ImplVertAdv = /* implicit vert. advection flag */
(PID.TID 0000.0001)                   F
(PID.TID 0000.0001)     ;
(PID.TID 0000.0001) PTRACERS_diffKh = /* Laplacian Diffusivity */
(PID.TID 0000.0001)                 0.000000000000000E+00
(PID.TID 0000.0001)     ;
(PID.TID 0000.0001) PTRACERS_diffK4 = /* Biharmonic Diffusivity */
(PID.TID 0000.0001)                 0.000000000000000E+00
(PID.TID 0000.0001)     ;
(PID.TID 0000.0001) PTRACERS_diffKrNr = /* Vertical Diffusivity */
(PID.TID 0000.0001)    24 @  1.000000000000000E-06              /* K =  1: 24 */
(PID.TID 0000.0001)     ;
(PID.TID 0000.0001) PTRACERS_useGMRedi = /* apply GM-Redi */
(PID.TID 0000.0001)                   F
(PID.TID 0000.0001)     ;
(PID.TID 0000.0001) PTRACERS_useDWNSLP = /* apply DOWN-SLOPE Flow */
(PID.TID 0000.0001)                   F
(PID.TID 0000.0001)     ;
(PID.TID 0000.0001) PTRACERS_useKPP = /* apply KPP scheme */
(PID.TID 0000.0001)                   T
(PID.TID 0000.0001)     ;
(PID.TID 0000.0001) PTRACERS_ref = /* Reference vertical profile */
(PID.TID 0000.0001)    24 @  0.000000000000000E+00              /* K =  1: 24 */
(PID.TID 0000.0001)     ;
(PID.TID 0000.0001) PTRACERS_EvPrRn =/* tracer conc. in Evap. & Rain */
(PID.TID 0000.0001)                 1.234567000000000E+05
(PID.TID 0000.0001)     ;
(PID.TID 0000.0001)  -----------------------------------
(PID.TID 0000.0001)  tracer number :   99
(PID.TID 0000.0001) PTRACERS_names = /* Tracer short name */
(PID.TID 0000.0001)               'Phy78'
(PID.TID 0000.0001)     ;
(PID.TID 0000.0001) PTRACERS_long_names = /* Tracer long name */
(PID.TID 0000.0001)               ''
(PID.TID 0000.0001)     ;
(PID.TID 0000.0001) PTRACERS_ioLabel = /* tracer IO Label */
(PID.TID 0000.0001)               '99'
(PID.TID 0000.0001)     ;
(PID.TID 0000.0001) PTRACERS_advScheme = /* Advection Scheme */
(PID.TID 0000.0001)                      33
(PID.TID 0000.0001)     ;
(PID.TID 0000.0001) PTRACERS_SOM_Advection = /* tracer uses SOM advection scheme */
(PID.TID 0000.0001)                   F
(PID.TID 0000.0001)     ;
(PID.TID 0000.0001) PTRACERS_ImplVertAdv = /* implicit vert. advection flag */
(PID.TID 0000.0001)                   F
(PID.TID 0000.0001)     ;
(PID.TID 0000.0001) PTRACERS_diffKh = /* Laplacian Diffusivity */
(PID.TID 0000.0001)                 0.000000000000000E+00
(PID.TID 0000.0001)     ;
(PID.TID 0000.0001) PTRACERS_diffK4 = /* Biharmonic Diffusivity */
(PID.TID 0000.0001)                 0.000000000000000E+00
(PID.TID 0000.0001)     ;
(PID.TID 0000.0001) PTRACERS_diffKrNr = /* Vertical Diffusivity */
(PID.TID 0000.0001)    24 @  1.000000000000000E-06              /* K =  1: 24 */
(PID.TID 0000.0001)     ;
(PID.TID 0000.0001) PTRACERS_useGMRedi = /* apply GM-Redi */
(PID.TID 0000.0001)                   F
(PID.TID 0000.0001)     ;
(PID.TID 0000.0001) PTRACERS_useDWNSLP = /* apply DOWN-SLOPE Flow */
(PID.TID 0000.0001)                   F
(PID.TID 0000.0001)     ;
(PID.TID 0000.0001) PTRACERS_useKPP = /* apply KPP scheme */
(PID.TID 0000.0001)                   T
(PID.TID 0000.0001)     ;
(PID.TID 0000.0001) PTRACERS_ref = /* Reference vertical profile */
(PID.TID 0000.0001)    24 @  0.000000000000000E+00              /* K =  1: 24 */
(PID.TID 0000.0001)     ;
(PID.TID 0000.0001) PTRACERS_EvPrRn =/* tracer conc. in Evap. & Rain */
(PID.TID 0000.0001)                 1.234567000000000E+05
(PID.TID 0000.0001)     ;
(PID.TID 0000.0001)  -----------------------------------
(PID.TID 0000.0001) GCHEM_CHECK: #define ALLOW_GCHEM
(PID.TID 0000.0001) MONOD_CHECK: #define ALLOW_MONOD
(PID.TID 0000.0001) MONOD_CHECK: iPtr darwin   PTRACERS_names
(PID.TID 0000.0001) MONOD_CHECK:    1 PO4      PO4
(PID.TID 0000.0001) MONOD_CHECK:    2 NO3      NO3
(PID.TID 0000.0001) MONOD_CHECK:    3 FeT      FeT
(PID.TID 0000.0001) MONOD_CHECK:    4 Si       SiO2
(PID.TID 0000.0001) MONOD_CHECK:    5 DOP      DOP
(PID.TID 0000.0001) MONOD_CHECK:    6 DON      DON
(PID.TID 0000.0001) MONOD_CHECK:    7 DOFe     DOFe
(PID.TID 0000.0001) MONOD_CHECK:    8 ZooP (1) ZOO1P
(PID.TID 0000.0001) MONOD_CHECK:    9 ZooN (1) ZOO1N
(PID.TID 0000.0001) MONOD_CHECK:   10 ZooFe(1) ZOO1Fe
(PID.TID 0000.0001) MONOD_CHECK:   11 ZooSi(1) ZOO1Si
(PID.TID 0000.0001) MONOD_CHECK:   12 ZooP (2) ZOO2P
(PID.TID 0000.0001) MONOD_CHECK:   13 ZooN (2) ZOO2N
(PID.TID 0000.0001) MONOD_CHECK:   14 ZooFe(2) ZOO2Fe
(PID.TID 0000.0001) MONOD_CHECK:   15 ZooSi(2) ZOO2Si
(PID.TID 0000.0001) MONOD_CHECK:   16 POP      POP
(PID.TID 0000.0001) MONOD_CHECK:   17 PON      PON
(PID.TID 0000.0001) MONOD_CHECK:   18 POFe     POFe
(PID.TID 0000.0001) MONOD_CHECK:   19 POSi     POSi
(PID.TID 0000.0001) MONOD_CHECK:   20 NH4      NH4
(PID.TID 0000.0001) MONOD_CHECK:   21 NO2      NO2
(PID.TID 0000.0001) MONOD_CHECK:   22 Phy(1)   Phy01
(PID.TID 0000.0001) MONOD_CHECK:   99 Phy(  78)Phy78
(PID.TID 0000.0001) SEAICE_CHECK: #define ALLOW_SEAICE
(PID.TID 0000.0001) GAD_CHECK: #define ALLOW_GENERIC_ADVDIFF
(PID.TID 0000.0001) // =======================================================
(PID.TID 0000.0001) // Check Model config. (CONFIG_CHECK):
(PID.TID 0000.0001) // CONFIG_CHECK : Normal End
(PID.TID 0000.0001) // =======================================================
(PID.TID 0000.0001) 
(PID.TID 0000.0001)  MDS_READ_META: opening file: pickup.0000188388.meta
(PID.TID 0000.0001)  nRecords = 195 ; filePrec =  64 ; fileIter =    188388
(PID.TID 0000.0001)     nDims =   2 , dims:
(PID.TID 0000.0001)    1:  76   1  76
(PID.TID 0000.0001)    2:  72   1  72
(PID.TID 0000.0001)     nFlds =   0 , nFl3D =   0 , fields:
(PID.TID 0000.0001) missingVal=  1.00000000000000E+00 ; nTimRec =   0 , timeList:
(PID.TID 0000.0001)  MDS_READ_FIELD: opening global file: pickup.0000188388.data
(PID.TID 0000.0001)  MDS_READ_FIELD: opening global file: pickup.0000188388.data
(PID.TID 0000.0001)  MDS_READ_FIELD: opening global file: pickup.0000188388.data
(PID.TID 0000.0001)  MDS_READ_FIELD: opening global file: pickup.0000188388.data
(PID.TID 0000.0001)  MDS_READ_FIELD: opening global file: pickup.0000188388.data
(PID.TID 0000.0001)  MDS_READ_FIELD: opening global file: pickup.0000188388.data
(PID.TID 0000.0001)  MDS_READ_FIELD: opening global file: pickup.0000188388.data
(PID.TID 0000.0001)  MDS_READ_FIELD: opening global file: pickup.0000188388.data
(PID.TID 0000.0001)  MDS_READ_FIELD: opening global file: pickup.0000188388.data
(PID.TID 0000.0001)  MDS_READ_FIELD: opening global file: pickup.0000188388.data
(PID.TID 0000.0001) READ_MFLDS_CHECK: - normal end ; reset MFLDS file-name: pickup.0000188388
(PID.TID 0000.0001)  write diagnostics summary to file ioUnit:      6
Iter.Nb:    188388 ; Time(s):  2.2606560000000E+08
------------------------------------------------------------------------
2D/3D diagnostics: Number of lists:    16
------------------------------------------------------------------------
listId=    1 ; file name: THETA_day
 nFlds, nActive,       freq     &     phase        , nLev               
    1  |    1  |     86400.000000         0.000000 |  24
 levels:   1   2   3   4   5   6   7   8   9  10  11  12  13  14  15  16  17  18  19  20  21  22  23  24
 diag# | name   |   ipt  |  iMate | kLev|   count |   mate.C|           
    26 |THETA   |      1 |      0 |  24 |       0 |
------------------------------------------------------------------------
listId=    2 ; file name: SALTanom_day
 nFlds, nActive,       freq     &     phase        , nLev               
    1  |    1  |     86400.000000         0.000000 |  24
 levels:   1   2   3   4   5   6   7   8   9  10  11  12  13  14  15  16  17  18  19  20  21  22  23  24
 diag# | name   |   ipt  |  iMate | kLev|   count |   mate.C|           
    29 |SALTanom|     25 |      0 |  24 |       0 |
------------------------------------------------------------------------
listId=    3 ; file name: SIarea_day
 nFlds, nActive,       freq     &     phase        , nLev               
    1  |    1  |     86400.000000         0.000000 |   1
 levels:   1
 diag# | name   |   ipt  |  iMate | kLev|   count |   mate.C|           
  1585 |SIarea  |     49 |      0 |   1 |       0 |
------------------------------------------------------------------------
listId=    4 ; file name: SIheff_day
 nFlds, nActive,       freq     &     phase        , nLev               
    1  |    1  |     86400.000000         0.000000 |   1
 levels:   1
 diag# | name   |   ipt  |  iMate | kLev|   count |   mate.C|           
  1588 |SIheff  |     50 |      0 |   1 |       0 |
------------------------------------------------------------------------
listId=    5 ; file name: SIhsnow_day
 nFlds, nActive,       freq     &     phase        , nLev               
    1  |    1  |     86400.000000         0.000000 |   1
 levels:   1
 diag# | name   |   ipt  |  iMate | kLev|   count |   mate.C|           
  1590 |SIhsnow |     51 |      0 |   1 |       0 |
------------------------------------------------------------------------
listId=    6 ; file name: SIqsw_day
 nFlds, nActive,       freq     &     phase        , nLev               
    1  |    1  |     86400.000000         0.000000 |   1
 levels:   1
 diag# | name   |   ipt  |  iMate | kLev|   count |   mate.C|           
  1605 |SIqsw   |     52 |      0 |   1 |       0 |
------------------------------------------------------------------------
listId=    7 ; file name: PAR_day
 nFlds, nActive,       freq     &     phase        , nLev               
    1  |    1  |     86400.000000         0.000000 |  24
 levels:   1   2   3   4   5   6   7   8   9  10  11  12  13  14  15  16  17  18  19  20  21  22  23  24
 diag# | name   |   ipt  |  iMate | kLev|   count |   mate.C|           
  1497 |PAR     |     53 |      0 |  24 |       0 |
------------------------------------------------------------------------
listId=    8 ; file name: PP_day
 nFlds, nActive,       freq     &     phase        , nLev               
    1  |    1  |     86400.000000         0.000000 |  24
 levels:   1   2   3   4   5   6   7   8   9  10  11  12  13  14  15  16  17  18  19  20  21  22  23  24
 diag# | name   |   ipt  |  iMate | kLev|   count |   mate.C|           
  1498 |PP      |     77 |      0 |  24 |       0 |
------------------------------------------------------------------------
listId=    9 ; file name: Nfix_day
 nFlds, nActive,       freq     &     phase        , nLev               
    1  |    1  |     86400.000000         0.000000 |  24
 levels:   1   2   3   4   5   6   7   8   9  10  11  12  13  14  15  16  17  18  19  20  21  22  23  24
 diag# | name   |   ipt  |  iMate | kLev|   count |   mate.C|           
  1499 |Nfix    |    101 |      0 |  24 |       0 |
------------------------------------------------------------------------
listId=   10 ; file name: ptracers
 nFlds, nActive,       freq     &     phase        , nLev               
   99  |   99  |     86400.000000         0.000000 |  24
 levels:   1   2   3   4   5   6   7   8   9  10  11  12  13  14  15  16  17  18  19  20  21  22  23  24
 diag# | name   |   ipt  |  iMate | kLev|   count |   mate.C|           
   209 |TRAC01  |    125 |      0 |  24 |       0 |
   222 |TRAC02  |    149 |      0 |  24 |       0 |
   235 |TRAC03  |    173 |      0 |  24 |       0 |
   248 |TRAC04  |    197 |      0 |  24 |       0 |
   261 |TRAC05  |    221 |      0 |  24 |       0 |
   274 |TRAC06  |    245 |      0 |  24 |       0 |
   287 |TRAC07  |    269 |      0 |  24 |       0 |
   300 |TRAC08  |    293 |      0 |  24 |       0 |
   313 |TRAC09  |    317 |      0 |  24 |       0 |
   326 |TRAC10  |    341 |      0 |  24 |       0 |
   339 |TRAC11  |    365 |      0 |  24 |       0 |
   352 |TRAC12  |    389 |      0 |  24 |       0 |
   365 |TRAC13  |    413 |      0 |  24 |       0 |
   378 |TRAC14  |    437 |      0 |  24 |       0 |
   391 |TRAC15  |    461 |      0 |  24 |       0 |
   404 |TRAC16  |    485 |      0 |  24 |       0 |
   417 |TRAC17  |    509 |      0 |  24 |       0 |
   430 |TRAC18  |    533 |      0 |  24 |       0 |
   443 |TRAC19  |    557 |      0 |  24 |       0 |
   456 |TRAC20  |    581 |      0 |  24 |       0 |
   469 |TRAC21  |    605 |      0 |  24 |       0 |
   482 |TRAC22  |    629 |      0 |  24 |       0 |
   495 |TRAC23  |    653 |      0 |  24 |       0 |
   508 |TRAC24  |    677 |      0 |  24 |       0 |
   521 |TRAC25  |    701 |      0 |  24 |       0 |
   534 |TRAC26  |    725 |      0 |  24 |       0 |
   547 |TRAC27  |    749 |      0 |  24 |       0 |
   560 |TRAC28  |    773 |      0 |  24 |       0 |
   573 |TRAC29  |    797 |      0 |  24 |       0 |
   586 |TRAC30  |    821 |      0 |  24 |       0 |
   599 |TRAC31  |    845 |      0 |  24 |       0 |
   612 |TRAC32  |    869 |      0 |  24 |       0 |
   625 |TRAC33  |    893 |      0 |  24 |       0 |
   638 |TRAC34  |    917 |      0 |  24 |       0 |
   651 |TRAC35  |    941 |      0 |  24 |       0 |
   664 |TRAC36  |    965 |      0 |  24 |       0 |
   677 |TRAC37  |    989 |      0 |  24 |       0 |
   690 |TRAC38  |   1013 |      0 |  24 |       0 |
   703 |TRAC39  |   1037 |      0 |  24 |       0 |
   716 |TRAC40  |   1061 |      0 |  24 |       0 |
   729 |TRAC41  |   1085 |      0 |  24 |       0 |
   742 |TRAC42  |   1109 |      0 |  24 |       0 |
   755 |TRAC43  |   1133 |      0 |  24 |       0 |
   768 |TRAC44  |   1157 |      0 |  24 |       0 |
   781 |TRAC45  |   1181 |      0 |  24 |       0 |
   794 |TRAC46  |   1205 |      0 |  24 |       0 |
   807 |TRAC47  |   1229 |      0 |  24 |       0 |
   820 |TRAC48  |   1253 |      0 |  24 |       0 |
   833 |TRAC49  |   1277 |      0 |  24 |       0 |
   846 |TRAC50  |   1301 |      0 |  24 |       0 |
   859 |TRAC51  |   1325 |      0 |  24 |       0 |
   872 |TRAC52  |   1349 |      0 |  24 |       0 |
   885 |TRAC53  |   1373 |      0 |  24 |       0 |
   898 |TRAC54  |   1397 |      0 |  24 |       0 |
   911 |TRAC55  |   1421 |      0 |  24 |       0 |
   924 |TRAC56  |   1445 |      0 |  24 |       0 |
   937 |TRAC57  |   1469 |      0 |  24 |       0 |
   950 |TRAC58  |   1493 |      0 |  24 |       0 |
   963 |TRAC59  |   1517 |      0 |  24 |       0 |
   976 |TRAC60  |   1541 |      0 |  24 |       0 |
   989 |TRAC61  |   1565 |      0 |  24 |       0 |
  1002 |TRAC62  |   1589 |      0 |  24 |       0 |
  1015 |TRAC63  |   1613 |      0 |  24 |       0 |
  1028 |TRAC64  |   1637 |      0 |  24 |       0 |
  1041 |TRAC65  |   1661 |      0 |  24 |       0 |
  1054 |TRAC66  |   1685 |      0 |  24 |       0 |
  1067 |TRAC67  |   1709 |      0 |  24 |       0 |
  1080 |TRAC68  |   1733 |      0 |  24 |       0 |
  1093 |TRAC69  |   1757 |      0 |  24 |       0 |
  1106 |TRAC70  |   1781 |      0 |  24 |       0 |
  1119 |TRAC71  |   1805 |      0 |  24 |       0 |
  1132 |TRAC72  |   1829 |      0 |  24 |       0 |
  1145 |TRAC73  |   1853 |      0 |  24 |       0 |
  1158 |TRAC74  |   1877 |      0 |  24 |       0 |
  1171 |TRAC75  |   1901 |      0 |  24 |       0 |
  1184 |TRAC76  |   1925 |      0 |  24 |       0 |
  1197 |TRAC77  |   1949 |      0 |  24 |       0 |
  1210 |TRAC78  |   1973 |      0 |  24 |       0 |
  1223 |TRAC79  |   1997 |      0 |  24 |       0 |
  1236 |TRAC80  |   2021 |      0 |  24 |       0 |
  1249 |TRAC81  |   2045 |      0 |  24 |       0 |
  1262 |TRAC82  |   2069 |      0 |  24 |       0 |
  1275 |TRAC83  |   2093 |      0 |  24 |       0 |
  1288 |TRAC84  |   2117 |      0 |  24 |       0 |
  1301 |TRAC85  |   2141 |      0 |  24 |       0 |
  1314 |TRAC86  |   2165 |      0 |  24 |       0 |
  1327 |TRAC87  |   2189 |      0 |  24 |       0 |
  1340 |TRAC88  |   2213 |      0 |  24 |       0 |
  1353 |TRAC89  |   2237 |      0 |  24 |       0 |
  1366 |TRAC90  |   2261 |      0 |  24 |       0 |
  1379 |TRAC91  |   2285 |      0 |  24 |       0 |
  1392 |TRAC92  |   2309 |      0 |  24 |       0 |
  1405 |TRAC93  |   2333 |      0 |  24 |       0 |
  1418 |TRAC94  |   2357 |      0 |  24 |       0 |
  1431 |TRAC95  |   2381 |      0 |  24 |       0 |
  1444 |TRAC96  |   2405 |      0 |  24 |       0 |
  1457 |TRAC97  |   2429 |      0 |  24 |       0 |
  1470 |TRAC98  |   2453 |      0 |  24 |       0 |
  1483 |TRAC99  |   2477 |      0 |  24 |       0 |
------------------------------------------------------------------------
listId=   11 ; file name: Diver1
 nFlds, nActive,       freq     &     phase        , nLev               
    1  |    1  |     86400.000000         0.000000 |  24
 levels:   1   2   3   4   5   6   7   8   9  10  11  12  13  14  15  16  17  18  19  20  21  22  23  24
 diag# | name   |   ipt  |  iMate | kLev|   count |   mate.C|           
  1579 |Diver1  |   2501 |      0 |  24 |       0 |
------------------------------------------------------------------------
listId=   12 ; file name: Diver2
 nFlds, nActive,       freq     &     phase        , nLev               
    1  |    1  |     86400.000000         0.000000 |  24
 levels:   1   2   3   4   5   6   7   8   9  10  11  12  13  14  15  16  17  18  19  20  21  22  23  24
 diag# | name   |   ipt  |  iMate | kLev|   count |   mate.C|           
  1580 |Diver2  |   2525 |      0 |  24 |       0 |
------------------------------------------------------------------------
listId=   13 ; file name: Diver3
 nFlds, nActive,       freq     &     phase        , nLev               
    1  |    1  |     86400.000000         0.000000 |  24
 levels:   1   2   3   4   5   6   7   8   9  10  11  12  13  14  15  16  17  18  19  20  21  22  23  24
 diag# | name   |   ipt  |  iMate | kLev|   count |   mate.C|           
  1581 |Diver3  |   2549 |      0 |  24 |       0 |
------------------------------------------------------------------------
listId=   14 ; file name: Diver4
 nFlds, nActive,       freq     &     phase        , nLev               
    1  |    1  |     86400.000000         0.000000 |  24
 levels:   1   2   3   4   5   6   7   8   9  10  11  12  13  14  15  16  17  18  19  20  21  22  23  24
 diag# | name   |   ipt  |  iMate | kLev|   count |   mate.C|           
  1582 |Diver4  |   2573 |      0 |  24 |       0 |
------------------------------------------------------------------------
listId=   15 ; file name: Shannon
 nFlds, nActive,       freq     &     phase        , nLev               
    1  |    1  |     86400.000000         0.000000 |  24
 levels:   1   2   3   4   5   6   7   8   9  10  11  12  13  14  15  16  17  18  19  20  21  22  23  24
 diag# | name   |   ipt  |  iMate | kLev|   count |   mate.C|           
  1583 |Shannon |   2597 |      0 |  24 |       0 |
------------------------------------------------------------------------
listId=   16 ; file name: Simpson
 nFlds, nActive,       freq     &     phase        , nLev               
    1  |    1  |     86400.000000         0.000000 |  24
 levels:   1   2   3   4   5   6   7   8   9  10  11  12  13  14  15  16  17  18  19  20  21  22  23  24
 diag# | name   |   ipt  |  iMate | kLev|   count |   mate.C|           
  1584 |Simpson |   2621 |      0 |  24 |       0 |
------------------------------------------------------------------------
Global & Regional Statistics diagnostics: Number of lists:    17
------------------------------------------------------------------------
listId=   1 ; file name: stat_SIqsw
 nFlds, nActive,       freq     &     phase        |                    
    1  |    1  |      1200.000000         0.000000 |
 Regions:   0
 diag# | name   |   ipt  |  iMate |    Volume   |   mate-Vol. |         
  1605 |SIqsw   |      1 |      0 | 0.00000E+00 |
------------------------------------------------------------------------
listId=   2 ; file name: stat_oceQsw
 nFlds, nActive,       freq     &     phase        |                    
    1  |    1  |      1200.000000         0.000000 |
 Regions:   0
 diag# | name   |   ipt  |  iMate |    Volume   |   mate-Vol. |         
    86 |oceQsw  |      2 |      0 | 0.00000E+00 |
------------------------------------------------------------------------
listId=   3 ; file name: stat_PAR
 nFlds, nActive,       freq     &     phase        |                    
    1  |    1  |      1200.000000         0.000000 |
 Regions:   0
 diag# | name   |   ipt  |  iMate |    Volume   |   mate-Vol. |         
  1497 |PAR     |      3 |      0 | 0.00000E+00 |
------------------------------------------------------------------------
listId=   4 ; file name: stat_EXFswnet
 nFlds, nActive,       freq     &     phase        |                    
    1  |    1  |      1200.000000         0.000000 |
 Regions:   0
 diag# | name   |   ipt  |  iMate |    Volume   |   mate-Vol. |         
   176 |EXFswnet|     27 |      0 | 0.00000E+00 |
------------------------------------------------------------------------
listId=   5 ; file name: stat_EXFswdn
 nFlds, nActive,       freq     &     phase        |                    
    1  |    1  |      1200.000000         0.000000 |
 Regions:   0
 diag# | name   |   ipt  |  iMate |    Volume   |   mate-Vol. |         
   178 |EXFswdn |     28 |      0 | 0.00000E+00 |
------------------------------------------------------------------------
listId=   6 ; file name: stat_THETA
 nFlds, nActive,       freq     &     phase        |                    
    1  |    1  |      1200.000000         0.000000 |
 Regions:   0
 diag# | name   |   ipt  |  iMate |    Volume   |   mate-Vol. |         
    26 |THETA   |     29 |      0 | 0.00000E+00 |
------------------------------------------------------------------------
listId=   7 ; file name: stat_SALTanom
 nFlds, nActive,       freq     &     phase        |                    
    1  |    1  |      1200.000000         0.000000 |
 Regions:   0
 diag# | name   |   ipt  |  iMate |    Volume   |   mate-Vol. |         
    29 |SALTanom|     53 |      0 | 0.00000E+00 |
------------------------------------------------------------------------
listId=   8 ; file name: stat_PP
 nFlds, nActive,       freq     &     phase        |                    
    1  |    1  |      1200.000000         0.000000 |
 Regions:   0
 diag# | name   |   ipt  |  iMate |    Volume   |   mate-Vol. |         
  1498 |PP      |     77 |      0 | 0.00000E+00 |
------------------------------------------------------------------------
listId=   9 ; file name: stat_Phy58
 nFlds, nActive,       freq     &     phase        |                    
    1  |    1  |      1200.000000         0.000000 |
 Regions:   0
 diag# | name   |   ipt  |  iMate |    Volume   |   mate-Vol. |         
  1223 |TRAC79  |    101 |      0 | 0.00000E+00 |
------------------------------------------------------------------------
listId=  10 ; file name: stat_ETAN
 nFlds, nActive,       freq     &     phase        |                    
    1  |    1  |      1200.000000         0.000000 |
 Regions:   0
 diag# | name   |   ipt  |  iMate |    Volume   |   mate-Vol. |         
    23 |ETAN    |    125 |      0 | 0.00000E+00 |
------------------------------------------------------------------------
listId=  11 ; file name: stat_FeT
 nFlds, nActive,       freq     &     phase        |                    
    1  |    1  |      1200.000000         0.000000 |
 Regions:   0
 diag# | name   |   ipt  |  iMate |    Volume   |   mate-Vol. |         
   235 |TRAC03  |    126 |      0 | 0.00000E+00 |
------------------------------------------------------------------------
listId=  12 ; file name: stat_Diver1
 nFlds, nActive,       freq     &     phase        |                    
    1  |    1  |      1200.000000         0.000000 |
 Regions:   0
 diag# | name   |   ipt  |  iMate |    Volume   |   mate-Vol. |         
  1579 |Diver1  |    150 |      0 | 0.00000E+00 |
------------------------------------------------------------------------
listId=  13 ; file name: stat_Diver2
 nFlds, nActive,       freq     &     phase        |                    
    1  |    1  |      1200.000000         0.000000 |
 Regions:   0
 diag# | name   |   ipt  |  iMate |    Volume   |   mate-Vol. |         
  1580 |Diver2  |    174 |      0 | 0.00000E+00 |
------------------------------------------------------------------------
listId=  14 ; file name: stat_Diver3
 nFlds, nActive,       freq     &     phase        |                    
    1  |    1  |      1200.000000         0.000000 |
 Regions:   0
 diag# | name   |   ipt  |  iMate |    Volume   |   mate-Vol. |         
  1581 |Diver3  |    198 |      0 | 0.00000E+00 |
------------------------------------------------------------------------
listId=  15 ; file name: stat_Diver4
 nFlds, nActive,       freq     &     phase        |                    
    1  |    1  |      1200.000000         0.000000 |
 Regions:   0
 diag# | name   |   ipt  |  iMate |    Volume   |   mate-Vol. |         
  1582 |Diver4  |    222 |      0 | 0.00000E+00 |
------------------------------------------------------------------------
listId=  16 ; file name: stat_Shannon
 nFlds, nActive,       freq     &     phase        |                    
    1  |    1  |      1200.000000         0.000000 |
 Regions:   0
 diag# | name   |   ipt  |  iMate |    Volume   |   mate-Vol. |         
  1583 |Shannon |    246 |      0 | 0.00000E+00 |
------------------------------------------------------------------------
listId=  17 ; file name: stat_Simpson
 nFlds, nActive,       freq     &     phase        |                    
    1  |    1  |      1200.000000         0.000000 |
 Regions:   0
 diag# | name   |   ipt  |  iMate |    Volume   |   mate-Vol. |         
  1584 |Simpson |    270 |      0 | 0.00000E+00 |
------------------------------------------------------------------------
(PID.TID 0000.0001)  MDS_READ_META: opening file: pickup_seaice.0000188388.meta
(PID.TID 0000.0001)  nRecords =   7 ; filePrec =  64 ; fileIter =    188388
(PID.TID 0000.0001)     nDims =   3 , dims:
(PID.TID 0000.0001)    1:  76   1  76
(PID.TID 0000.0001)    2:  72   1  72
(PID.TID 0000.0001)    3:   3   1   3
(PID.TID 0000.0001)     nFlds =   0 , nFl3D =   0 , fields:
(PID.TID 0000.0001) missingVal=  1.00000000000000E+00 ; nTimRec =   0 , timeList:
(PID.TID 0000.0001)  MDS_READ_FIELD: opening global file: pickup_seaice.0000188388.data
(PID.TID 0000.0001)  MDS_READ_FIELD: opening global file: pickup_seaice.0000188388.data
(PID.TID 0000.0001)  MDS_READ_FIELD: opening global file: pickup_seaice.0000188388.data
(PID.TID 0000.0001)  MDS_READ_FIELD: opening global file: pickup_seaice.0000188388.data
(PID.TID 0000.0001)  MDS_READ_FIELD: opening global file: pickup_seaice.0000188388.data
(PID.TID 0000.0001)  MDS_READ_FIELD: opening global file: pickup_seaice.0000188388.data
(PID.TID 0000.0001) READ_MFLDS_CHECK: - normal end ; reset MFLDS file-name: pickup_seaice.0000188388
(PID.TID 0000.0001)  MDS_READ_META: opening file: pickup_ptracers.0000188388.meta
(PID.TID 0000.0001)  nRecords =  99 ; filePrec =  64 ; fileIter =    188388
(PID.TID 0000.0001)     nDims =   3 , dims:
(PID.TID 0000.0001)    1:  76   1  76
(PID.TID 0000.0001)    2:  72   1  72
(PID.TID 0000.0001)    3:  24   1  24
(PID.TID 0000.0001)     nFlds =  99 , nFl3D =   0 , fields:
(PID.TID 0000.0001)  >pTr01   < >pTr02   < >pTr03   < >pTr04   < >pTr05   < >pTr06   < >pTr07   < >pTr08   < >pTr09   < >pTr10   < >pTr11   < >pTr12   < >pTr13   < >pTr14   < >pTr15   < >pTr16   < >pTr17   < >pTr18   < >pTr19   < >pTr20   <
(PID.TID 0000.0001)  >pTr21   < >pTr22   < >pTr23   < >pTr24   < >pTr25   < >pTr26   < >pTr27   < >pTr28   < >pTr29   < >pTr30   < >pTr31   < >pTr32   < >pTr33   < >pTr34   < >pTr35   < >pTr36   < >pTr37   < >pTr38   < >pTr39   < >pTr40   <
(PID.TID 0000.0001)  >pTr41   < >pTr42   < >pTr43   < >pTr44   < >pTr45   < >pTr46   < >pTr47   < >pTr48   < >pTr49   < >pTr50   < >pTr51   < >pTr52   < >pTr53   < >pTr54   < >pTr55   < >pTr56   < >pTr57   < >pTr58   < >pTr59   < >pTr60   <
(PID.TID 0000.0001)  >pTr61   < >pTr62   < >pTr63   < >pTr64   < >pTr65   < >pTr66   < >pTr67   < >pTr68   < >pTr69   < >pTr70   < >pTr71   < >pTr72   < >pTr73   < >pTr74   < >pTr75   < >pTr76   < >pTr77   < >pTr78   < >pTr79   < >pTr80   <
(PID.TID 0000.0001)  >pTr81   < >pTr82   < >pTr83   < >pTr84   < >pTr85   < >pTr86   < >pTr87   < >pTr88   < >pTr89   < >pTr90   < >pTr91   < >pTr92   < >pTr93   < >pTr94   < >pTr95   < >pTr96   < >pTr97   < >pTr98   < >pTr99   <
(PID.TID 0000.0001) missingVal=  1.00000000000000E+00 ; nTimRec =   0 , timeList:
(PID.TID 0000.0001) READ_MFLDS_3D_RL: read field: "pTr01   ", #   1 in fldList, rec=   1
(PID.TID 0000.0001)  MDS_READ_FIELD: opening global file: pickup_ptracers.0000188388.data
(PID.TID 0000.0001) READ_MFLDS_3D_RL: read field: "pTr02   ", #   2 in fldList, rec=   2
(PID.TID 0000.0001)  MDS_READ_FIELD: opening global file: pickup_ptracers.0000188388.data
(PID.TID 0000.0001) READ_MFLDS_3D_RL: read field: "pTr03   ", #   3 in fldList, rec=   3
(PID.TID 0000.0001)  MDS_READ_FIELD: opening global file: pickup_ptracers.0000188388.data
(PID.TID 0000.0001) READ_MFLDS_3D_RL: read field: "pTr04   ", #   4 in fldList, rec=   4
(PID.TID 0000.0001)  MDS_READ_FIELD: opening global file: pickup_ptracers.0000188388.data
(PID.TID 0000.0001) READ_MFLDS_3D_RL: read field: "pTr05   ", #   5 in fldList, rec=   5
(PID.TID 0000.0001)  MDS_READ_FIELD: opening global file: pickup_ptracers.0000188388.data
(PID.TID 0000.0001) READ_MFLDS_3D_RL: read field: "pTr06   ", #   6 in fldList, rec=   6
(PID.TID 0000.0001)  MDS_READ_FIELD: opening global file: pickup_ptracers.0000188388.data
(PID.TID 0000.0001) READ_MFLDS_3D_RL: read field: "pTr07   ", #   7 in fldList, rec=   7
(PID.TID 0000.0001)  MDS_READ_FIELD: opening global file: pickup_ptracers.0000188388.data
(PID.TID 0000.0001) READ_MFLDS_3D_RL: read field: "pTr08   ", #   8 in fldList, rec=   8
(PID.TID 0000.0001)  MDS_READ_FIELD: opening global file: pickup_ptracers.0000188388.data
(PID.TID 0000.0001) READ_MFLDS_3D_RL: read field: "pTr09   ", #   9 in fldList, rec=   9
(PID.TID 0000.0001)  MDS_READ_FIELD: opening global file: pickup_ptracers.0000188388.data
(PID.TID 0000.0001) READ_MFLDS_3D_RL: read field: "pTr10   ", #  10 in fldList, rec=  10
(PID.TID 0000.0001)  MDS_READ_FIELD: opening global file: pickup_ptracers.0000188388.data
(PID.TID 0000.0001) READ_MFLDS_3D_RL: read field: "pTr11   ", #  11 in fldList, rec=  11
(PID.TID 0000.0001)  MDS_READ_FIELD: opening global file: pickup_ptracers.0000188388.data
(PID.TID 0000.0001) READ_MFLDS_3D_RL: read field: "pTr12   ", #  12 in fldList, rec=  12
(PID.TID 0000.0001)  MDS_READ_FIELD: opening global file: pickup_ptracers.0000188388.data
(PID.TID 0000.0001) READ_MFLDS_3D_RL: read field: "pTr13   ", #  13 in fldList, rec=  13
(PID.TID 0000.0001)  MDS_READ_FIELD: opening global file: pickup_ptracers.0000188388.data
(PID.TID 0000.0001) READ_MFLDS_3D_RL: read field: "pTr14   ", #  14 in fldList, rec=  14
(PID.TID 0000.0001)  MDS_READ_FIELD: opening global file: pickup_ptracers.0000188388.data
(PID.TID 0000.0001) READ_MFLDS_3D_RL: read field: "pTr15   ", #  15 in fldList, rec=  15
(PID.TID 0000.0001)  MDS_READ_FIELD: opening global file: pickup_ptracers.0000188388.data
(PID.TID 0000.0001) READ_MFLDS_3D_RL: read field: "pTr16   ", #  16 in fldList, rec=  16
(PID.TID 0000.0001)  MDS_READ_FIELD: opening global file: pickup_ptracers.0000188388.data
(PID.TID 0000.0001) READ_MFLDS_3D_RL: read field: "pTr17   ", #  17 in fldList, rec=  17
(PID.TID 0000.0001)  MDS_READ_FIELD: opening global file: pickup_ptracers.0000188388.data
(PID.TID 0000.0001) READ_MFLDS_3D_RL: read field: "pTr18   ", #  18 in fldList, rec=  18
(PID.TID 0000.0001)  MDS_READ_FIELD: opening global file: pickup_ptracers.0000188388.data
(PID.TID 0000.0001) READ_MFLDS_3D_RL: read field: "pTr19   ", #  19 in fldList, rec=  19
(PID.TID 0000.0001)  MDS_READ_FIELD: opening global file: pickup_ptracers.0000188388.data
(PID.TID 0000.0001) READ_MFLDS_3D_RL: read field: "pTr20   ", #  20 in fldList, rec=  20
(PID.TID 0000.0001)  MDS_READ_FIELD: opening global file: pickup_ptracers.0000188388.data
(PID.TID 0000.0001) READ_MFLDS_3D_RL: read field: "pTr21   ", #  21 in fldList, rec=  21
(PID.TID 0000.0001)  MDS_READ_FIELD: opening global file: pickup_ptracers.0000188388.data
(PID.TID 0000.0001) READ_MFLDS_3D_RL: read field: "pTr22   ", #  22 in fldList, rec=  22
(PID.TID 0000.0001)  MDS_READ_FIELD: opening global file: pickup_ptracers.0000188388.data
(PID.TID 0000.0001) READ_MFLDS_3D_RL: read field: "pTr23   ", #  23 in fldList, rec=  23
(PID.TID 0000.0001)  MDS_READ_FIELD: opening global file: pickup_ptracers.0000188388.data
(PID.TID 0000.0001) READ_MFLDS_3D_RL: read field: "pTr24   ", #  24 in fldList, rec=  24
(PID.TID 0000.0001)  MDS_READ_FIELD: opening global file: pickup_ptracers.0000188388.data
(PID.TID 0000.0001) READ_MFLDS_3D_RL: read field: "pTr25   ", #  25 in fldList, rec=  25
(PID.TID 0000.0001)  MDS_READ_FIELD: opening global file: pickup_ptracers.0000188388.data
(PID.TID 0000.0001) READ_MFLDS_3D_RL: read field: "pTr26   ", #  26 in fldList, rec=  26
(PID.TID 0000.0001)  MDS_READ_FIELD: opening global file: pickup_ptracers.0000188388.data
(PID.TID 0000.0001) READ_MFLDS_3D_RL: read field: "pTr27   ", #  27 in fldList, rec=  27
(PID.TID 0000.0001)  MDS_READ_FIELD: opening global file: pickup_ptracers.0000188388.data
(PID.TID 0000.0001) READ_MFLDS_3D_RL: read field: "pTr28   ", #  28 in fldList, rec=  28
(PID.TID 0000.0001)  MDS_READ_FIELD: opening global file: pickup_ptracers.0000188388.data
(PID.TID 0000.0001) READ_MFLDS_3D_RL: read field: "pTr29   ", #  29 in fldList, rec=  29
(PID.TID 0000.0001)  MDS_READ_FIELD: opening global file: pickup_ptracers.0000188388.data
(PID.TID 0000.0001) READ_MFLDS_3D_RL: read field: "pTr30   ", #  30 in fldList, rec=  30
(PID.TID 0000.0001)  MDS_READ_FIELD: opening global file: pickup_ptracers.0000188388.data
(PID.TID 0000.0001) READ_MFLDS_3D_RL: read field: "pTr31   ", #  31 in fldList, rec=  31
(PID.TID 0000.0001)  MDS_READ_FIELD: opening global file: pickup_ptracers.0000188388.data
(PID.TID 0000.0001) READ_MFLDS_3D_RL: read field: "pTr32   ", #  32 in fldList, rec=  32
(PID.TID 0000.0001)  MDS_READ_FIELD: opening global file: pickup_ptracers.0000188388.data
(PID.TID 0000.0001) READ_MFLDS_3D_RL: read field: "pTr33   ", #  33 in fldList, rec=  33
(PID.TID 0000.0001)  MDS_READ_FIELD: opening global file: pickup_ptracers.0000188388.data
(PID.TID 0000.0001) READ_MFLDS_3D_RL: read field: "pTr34   ", #  34 in fldList, rec=  34
(PID.TID 0000.0001)  MDS_READ_FIELD: opening global file: pickup_ptracers.0000188388.data
(PID.TID 0000.0001) READ_MFLDS_3D_RL: read field: "pTr35   ", #  35 in fldList, rec=  35
(PID.TID 0000.0001)  MDS_READ_FIELD: opening global file: pickup_ptracers.0000188388.data
(PID.TID 0000.0001) READ_MFLDS_3D_RL: read field: "pTr36   ", #  36 in fldList, rec=  36
(PID.TID 0000.0001)  MDS_READ_FIELD: opening global file: pickup_ptracers.0000188388.data
(PID.TID 0000.0001) READ_MFLDS_3D_RL: read field: "pTr37   ", #  37 in fldList, rec=  37
(PID.TID 0000.0001)  MDS_READ_FIELD: opening global file: pickup_ptracers.0000188388.data
(PID.TID 0000.0001) READ_MFLDS_3D_RL: read field: "pTr38   ", #  38 in fldList, rec=  38
(PID.TID 0000.0001)  MDS_READ_FIELD: opening global file: pickup_ptracers.0000188388.data
(PID.TID 0000.0001) READ_MFLDS_3D_RL: read field: "pTr39   ", #  39 in fldList, rec=  39
(PID.TID 0000.0001)  MDS_READ_FIELD: opening global file: pickup_ptracers.0000188388.data
(PID.TID 0000.0001) READ_MFLDS_3D_RL: read field: "pTr40   ", #  40 in fldList, rec=  40
(PID.TID 0000.0001)  MDS_READ_FIELD: opening global file: pickup_ptracers.0000188388.data
(PID.TID 0000.0001) READ_MFLDS_3D_RL: read field: "pTr41   ", #  41 in fldList, rec=  41
(PID.TID 0000.0001)  MDS_READ_FIELD: opening global file: pickup_ptracers.0000188388.data
(PID.TID 0000.0001) READ_MFLDS_3D_RL: read field: "pTr42   ", #  42 in fldList, rec=  42
(PID.TID 0000.0001)  MDS_READ_FIELD: opening global file: pickup_ptracers.0000188388.data
(PID.TID 0000.0001) READ_MFLDS_3D_RL: read field: "pTr43   ", #  43 in fldList, rec=  43
(PID.TID 0000.0001)  MDS_READ_FIELD: opening global file: pickup_ptracers.0000188388.data
(PID.TID 0000.0001) READ_MFLDS_3D_RL: read field: "pTr44   ", #  44 in fldList, rec=  44
(PID.TID 0000.0001)  MDS_READ_FIELD: opening global file: pickup_ptracers.0000188388.data
(PID.TID 0000.0001) READ_MFLDS_3D_RL: read field: "pTr45   ", #  45 in fldList, rec=  45
(PID.TID 0000.0001)  MDS_READ_FIELD: opening global file: pickup_ptracers.0000188388.data
(PID.TID 0000.0001) READ_MFLDS_3D_RL: read field: "pTr46   ", #  46 in fldList, rec=  46
(PID.TID 0000.0001)  MDS_READ_FIELD: opening global file: pickup_ptracers.0000188388.data
(PID.TID 0000.0001) READ_MFLDS_3D_RL: read field: "pTr47   ", #  47 in fldList, rec=  47
(PID.TID 0000.0001)  MDS_READ_FIELD: opening global file: pickup_ptracers.0000188388.data
(PID.TID 0000.0001) READ_MFLDS_3D_RL: read field: "pTr48   ", #  48 in fldList, rec=  48
(PID.TID 0000.0001)  MDS_READ_FIELD: opening global file: pickup_ptracers.0000188388.data
(PID.TID 0000.0001) READ_MFLDS_3D_RL: read field: "pTr49   ", #  49 in fldList, rec=  49
(PID.TID 0000.0001)  MDS_READ_FIELD: opening global file: pickup_ptracers.0000188388.data
(PID.TID 0000.0001) READ_MFLDS_3D_RL: read field: "pTr50   ", #  50 in fldList, rec=  50
(PID.TID 0000.0001)  MDS_READ_FIELD: opening global file: pickup_ptracers.0000188388.data
(PID.TID 0000.0001) READ_MFLDS_3D_RL: read field: "pTr51   ", #  51 in fldList, rec=  51
(PID.TID 0000.0001)  MDS_READ_FIELD: opening global file: pickup_ptracers.0000188388.data
(PID.TID 0000.0001) READ_MFLDS_3D_RL: read field: "pTr52   ", #  52 in fldList, rec=  52
(PID.TID 0000.0001)  MDS_READ_FIELD: opening global file: pickup_ptracers.0000188388.data
(PID.TID 0000.0001) READ_MFLDS_3D_RL: read field: "pTr53   ", #  53 in fldList, rec=  53
(PID.TID 0000.0001)  MDS_READ_FIELD: opening global file: pickup_ptracers.0000188388.data
(PID.TID 0000.0001) READ_MFLDS_3D_RL: read field: "pTr54   ", #  54 in fldList, rec=  54
(PID.TID 0000.0001)  MDS_READ_FIELD: opening global file: pickup_ptracers.0000188388.data
(PID.TID 0000.0001) READ_MFLDS_3D_RL: read field: "pTr55   ", #  55 in fldList, rec=  55
(PID.TID 0000.0001)  MDS_READ_FIELD: opening global file: pickup_ptracers.0000188388.data
(PID.TID 0000.0001) READ_MFLDS_3D_RL: read field: "pTr56   ", #  56 in fldList, rec=  56
(PID.TID 0000.0001)  MDS_READ_FIELD: opening global file: pickup_ptracers.0000188388.data
(PID.TID 0000.0001) READ_MFLDS_3D_RL: read field: "pTr57   ", #  57 in fldList, rec=  57
(PID.TID 0000.0001)  MDS_READ_FIELD: opening global file: pickup_ptracers.0000188388.data
(PID.TID 0000.0001) READ_MFLDS_3D_RL: read field: "pTr58   ", #  58 in fldList, rec=  58
(PID.TID 0000.0001)  MDS_READ_FIELD: opening global file: pickup_ptracers.0000188388.data
(PID.TID 0000.0001) READ_MFLDS_3D_RL: read field: "pTr59   ", #  59 in fldList, rec=  59
(PID.TID 0000.0001)  MDS_READ_FIELD: opening global file: pickup_ptracers.0000188388.data
(PID.TID 0000.0001) READ_MFLDS_3D_RL: read field: "pTr60   ", #  60 in fldList, rec=  60
(PID.TID 0000.0001)  MDS_READ_FIELD: opening global file: pickup_ptracers.0000188388.data
(PID.TID 0000.0001) READ_MFLDS_3D_RL: read field: "pTr61   ", #  61 in fldList, rec=  61
(PID.TID 0000.0001)  MDS_READ_FIELD: opening global file: pickup_ptracers.0000188388.data
(PID.TID 0000.0001) READ_MFLDS_3D_RL: read field: "pTr62   ", #  62 in fldList, rec=  62
(PID.TID 0000.0001)  MDS_READ_FIELD: opening global file: pickup_ptracers.0000188388.data
(PID.TID 0000.0001) READ_MFLDS_3D_RL: read field: "pTr63   ", #  63 in fldList, rec=  63
(PID.TID 0000.0001)  MDS_READ_FIELD: opening global file: pickup_ptracers.0000188388.data
(PID.TID 0000.0001) READ_MFLDS_3D_RL: read field: "pTr64   ", #  64 in fldList, rec=  64
(PID.TID 0000.0001)  MDS_READ_FIELD: opening global file: pickup_ptracers.0000188388.data
(PID.TID 0000.0001) READ_MFLDS_3D_RL: read field: "pTr65   ", #  65 in fldList, rec=  65
(PID.TID 0000.0001)  MDS_READ_FIELD: opening global file: pickup_ptracers.0000188388.data
(PID.TID 0000.0001) READ_MFLDS_3D_RL: read field: "pTr66   ", #  66 in fldList, rec=  66
(PID.TID 0000.0001)  MDS_READ_FIELD: opening global file: pickup_ptracers.0000188388.data
(PID.TID 0000.0001) READ_MFLDS_3D_RL: read field: "pTr67   ", #  67 in fldList, rec=  67
(PID.TID 0000.0001)  MDS_READ_FIELD: opening global file: pickup_ptracers.0000188388.data
(PID.TID 0000.0001) READ_MFLDS_3D_RL: read field: "pTr68   ", #  68 in fldList, rec=  68
(PID.TID 0000.0001)  MDS_READ_FIELD: opening global file: pickup_ptracers.0000188388.data
(PID.TID 0000.0001) READ_MFLDS_3D_RL: read field: "pTr69   ", #  69 in fldList, rec=  69
(PID.TID 0000.0001)  MDS_READ_FIELD: opening global file: pickup_ptracers.0000188388.data
(PID.TID 0000.0001) READ_MFLDS_3D_RL: read field: "pTr70   ", #  70 in fldList, rec=  70
(PID.TID 0000.0001)  MDS_READ_FIELD: opening global file: pickup_ptracers.0000188388.data
(PID.TID 0000.0001) READ_MFLDS_3D_RL: read field: "pTr71   ", #  71 in fldList, rec=  71
(PID.TID 0000.0001)  MDS_READ_FIELD: opening global file: pickup_ptracers.0000188388.data
(PID.TID 0000.0001) READ_MFLDS_3D_RL: read field: "pTr72   ", #  72 in fldList, rec=  72
(PID.TID 0000.0001)  MDS_READ_FIELD: opening global file: pickup_ptracers.0000188388.data
(PID.TID 0000.0001) READ_MFLDS_3D_RL: read field: "pTr73   ", #  73 in fldList, rec=  73
(PID.TID 0000.0001)  MDS_READ_FIELD: opening global file: pickup_ptracers.0000188388.data
(PID.TID 0000.0001) READ_MFLDS_3D_RL: read field: "pTr74   ", #  74 in fldList, rec=  74
(PID.TID 0000.0001)  MDS_READ_FIELD: opening global file: pickup_ptracers.0000188388.data
(PID.TID 0000.0001) READ_MFLDS_3D_RL: read field: "pTr75   ", #  75 in fldList, rec=  75
(PID.TID 0000.0001)  MDS_READ_FIELD: opening global file: pickup_ptracers.0000188388.data
(PID.TID 0000.0001) READ_MFLDS_3D_RL: read field: "pTr76   ", #  76 in fldList, rec=  76
(PID.TID 0000.0001)  MDS_READ_FIELD: opening global file: pickup_ptracers.0000188388.data
(PID.TID 0000.0001) READ_MFLDS_3D_RL: read field: "pTr77   ", #  77 in fldList, rec=  77
(PID.TID 0000.0001)  MDS_READ_FIELD: opening global file: pickup_ptracers.0000188388.data
(PID.TID 0000.0001) READ_MFLDS_3D_RL: read field: "pTr78   ", #  78 in fldList, rec=  78
(PID.TID 0000.0001)  MDS_READ_FIELD: opening global file: pickup_ptracers.0000188388.data
(PID.TID 0000.0001) READ_MFLDS_3D_RL: read field: "pTr79   ", #  79 in fldList, rec=  79
(PID.TID 0000.0001)  MDS_READ_FIELD: opening global file: pickup_ptracers.0000188388.data
(PID.TID 0000.0001) READ_MFLDS_3D_RL: read field: "pTr80   ", #  80 in fldList, rec=  80
(PID.TID 0000.0001)  MDS_READ_FIELD: opening global file: pickup_ptracers.0000188388.data
(PID.TID 0000.0001) READ_MFLDS_3D_RL: read field: "pTr81   ", #  81 in fldList, rec=  81
(PID.TID 0000.0001)  MDS_READ_FIELD: opening global file: pickup_ptracers.0000188388.data
(PID.TID 0000.0001) READ_MFLDS_3D_RL: read field: "pTr82   ", #  82 in fldList, rec=  82
(PID.TID 0000.0001)  MDS_READ_FIELD: opening global file: pickup_ptracers.0000188388.data
(PID.TID 0000.0001) READ_MFLDS_3D_RL: read field: "pTr83   ", #  83 in fldList, rec=  83
(PID.TID 0000.0001)  MDS_READ_FIELD: opening global file: pickup_ptracers.0000188388.data
(PID.TID 0000.0001) READ_MFLDS_3D_RL: read field: "pTr84   ", #  84 in fldList, rec=  84
(PID.TID 0000.0001)  MDS_READ_FIELD: opening global file: pickup_ptracers.0000188388.data
(PID.TID 0000.0001) READ_MFLDS_3D_RL: read field: "pTr85   ", #  85 in fldList, rec=  85
(PID.TID 0000.0001)  MDS_READ_FIELD: opening global file: pickup_ptracers.0000188388.data
(PID.TID 0000.0001) READ_MFLDS_3D_RL: read field: "pTr86   ", #  86 in fldList, rec=  86
(PID.TID 0000.0001)  MDS_READ_FIELD: opening global file: pickup_ptracers.0000188388.data
(PID.TID 0000.0001) READ_MFLDS_3D_RL: read field: "pTr87   ", #  87 in fldList, rec=  87
(PID.TID 0000.0001)  MDS_READ_FIELD: opening global file: pickup_ptracers.0000188388.data
(PID.TID 0000.0001) READ_MFLDS_3D_RL: read field: "pTr88   ", #  88 in fldList, rec=  88
(PID.TID 0000.0001)  MDS_READ_FIELD: opening global file: pickup_ptracers.0000188388.data
(PID.TID 0000.0001) READ_MFLDS_3D_RL: read field: "pTr89   ", #  89 in fldList, rec=  89
(PID.TID 0000.0001)  MDS_READ_FIELD: opening global file: pickup_ptracers.0000188388.data
(PID.TID 0000.0001) READ_MFLDS_3D_RL: read field: "pTr90   ", #  90 in fldList, rec=  90
(PID.TID 0000.0001)  MDS_READ_FIELD: opening global file: pickup_ptracers.0000188388.data
(PID.TID 0000.0001) READ_MFLDS_3D_RL: read field: "pTr91   ", #  91 in fldList, rec=  91
(PID.TID 0000.0001)  MDS_READ_FIELD: opening global file: pickup_ptracers.0000188388.data
(PID.TID 0000.0001) READ_MFLDS_3D_RL: read field: "pTr92   ", #  92 in fldList, rec=  92
(PID.TID 0000.0001)  MDS_READ_FIELD: opening global file: pickup_ptracers.0000188388.data
(PID.TID 0000.0001) READ_MFLDS_3D_RL: read field: "pTr93   ", #  93 in fldList, rec=  93
(PID.TID 0000.0001)  MDS_READ_FIELD: opening global file: pickup_ptracers.0000188388.data
(PID.TID 0000.0001) READ_MFLDS_3D_RL: read field: "pTr94   ", #  94 in fldList, rec=  94
(PID.TID 0000.0001)  MDS_READ_FIELD: opening global file: pickup_ptracers.0000188388.data
(PID.TID 0000.0001) READ_MFLDS_3D_RL: read field: "pTr95   ", #  95 in fldList, rec=  95
(PID.TID 0000.0001)  MDS_READ_FIELD: opening global file: pickup_ptracers.0000188388.data
(PID.TID 0000.0001) READ_MFLDS_3D_RL: read field: "pTr96   ", #  96 in fldList, rec=  96
(PID.TID 0000.0001)  MDS_READ_FIELD: opening global file: pickup_ptracers.0000188388.data
(PID.TID 0000.0001) READ_MFLDS_3D_RL: read field: "pTr97   ", #  97 in fldList, rec=  97
(PID.TID 0000.0001)  MDS_READ_FIELD: opening global file: pickup_ptracers.0000188388.data
(PID.TID 0000.0001) READ_MFLDS_3D_RL: read field: "pTr98   ", #  98 in fldList, rec=  98
(PID.TID 0000.0001)  MDS_READ_FIELD: opening global file: pickup_ptracers.0000188388.data
(PID.TID 0000.0001) READ_MFLDS_3D_RL: read field: "pTr99   ", #  99 in fldList, rec=  99
(PID.TID 0000.0001)  MDS_READ_FIELD: opening global file: pickup_ptracers.0000188388.data
(PID.TID 0000.0001) READ_MFLDS_CHECK: - normal end ; reset MFLDS file-name: pickup_ptracers.0000188388
(PID.TID 0000.0001) QQ random port_rand            11231   0.4077530000000000
(PID.TID 0000.0001) // =======================================================
(PID.TID 0000.0001) // Darwin init variables >>> START <<<
(PID.TID 0000.0001) // =======================================================
(PID.TID 0000.0001) QQ random port_rand            11231   0.4077530000000000
(PID.TID 0000.0001) generate Phyto: np =    1 FIXED - no DIAZO
(PID.TID 0000.0001) generate Phyto: np =    1 Topt       =   17.2985360000000
(PID.TID 0000.0001) generate Phyto: np =    1 growthdays =  0.400000000000000
(PID.TID 0000.0001) generate Phyto: np =    1 ksatPAR    =  4.753991743704575E-002
(PID.TID 0000.0001) generate Phyto: np =    1 kinhib     =  0.945139083921900
(PID.TID 0000.0001) generate Phyto: np =    2 FIXED - no DIAZO
(PID.TID 0000.0001) generate Phyto: np =    2 Topt       =   29.0534000000000
(PID.TID 0000.0001) generate Phyto: np =    2 growthdays =  0.400000000000000
(PID.TID 0000.0001) generate Phyto: np =    2 ksatPAR    =  4.923644600026894E-002
(PID.TID 0000.0001) generate Phyto: np =    2 kinhib     =   1.02592115279712
(PID.TID 0000.0001) generate Phyto: np =    3 FIXED - no DIAZO
(PID.TID 0000.0001) generate Phyto: np =    3 Topt       =   27.5613920000000
(PID.TID 0000.0001) generate Phyto: np =    3 growthdays =  0.400000000000000
(PID.TID 0000.0001) generate Phyto: np =    3 ksatPAR    =  0.127593070401707
(PID.TID 0000.0001) generate Phyto: np =    3 kinhib     =   1.05938837772244
(PID.TID 0000.0001) generate Phyto: np =    4 FIXED - no DIAZO
(PID.TID 0000.0001) generate Phyto: np =    4 Topt       = -0.492711999999997
(PID.TID 0000.0001) generate Phyto: np =    4 growthdays =  0.400000000000000
(PID.TID 0000.0001) generate Phyto: np =    4 ksatPAR    =  3.643510891768174E-002
(PID.TID 0000.0001) generate Phyto: np =    4 kinhib     =  0.996803708472489
(PID.TID 0000.0001) generate Phyto: np =    5 FIXED - no DIAZO
(PID.TID 0000.0001) generate Phyto: np =    5 Topt       =   9.37253600000000
(PID.TID 0000.0001) generate Phyto: np =    5 growthdays =  0.400000000000000
(PID.TID 0000.0001) generate Phyto: np =    5 ksatPAR    =  4.980382657586385E-002
(PID.TID 0000.0001) generate Phyto: np =    5 kinhib     =   1.05269671662349
(PID.TID 0000.0001) generate Phyto: np =    6 FIXED - no DIAZO
(PID.TID 0000.0001) generate Phyto: np =    6 Topt       =   29.7286080000000
(PID.TID 0000.0001) generate Phyto: np =    6 growthdays =  0.400000000000000
(PID.TID 0000.0001) generate Phyto: np =    6 ksatPAR    =  8.341192581047355E-002
(PID.TID 0000.0001) generate Phyto: np =    6 kinhib     =   1.01793926372161
(PID.TID 0000.0001) generate Phyto: np =    7 FIXED - no DIAZO
(PID.TID 0000.0001) generate Phyto: np =    7 Topt       =  -1.71912800000000
(PID.TID 0000.0001) generate Phyto: np =    7 growthdays =  0.700000000000000
(PID.TID 0000.0001) generate Phyto: np =    7 ksatPAR    =  1.682639505265385E-003
(PID.TID 0000.0001) generate Phyto: np =    7 kinhib     =   5.95938178456200
(PID.TID 0000.0001) generate Phyto: np =    8 FIXED - no DIAZO
(PID.TID 0000.0001) generate Phyto: np =    8 Topt       =   6.94750400000000
(PID.TID 0000.0001) generate Phyto: np =    8 growthdays =  0.700000000000000
(PID.TID 0000.0001) generate Phyto: np =    8 ksatPAR    =  0.128619129093561
(PID.TID 0000.0001) generate Phyto: np =    8 kinhib     =   5.98917463537917
(PID.TID 0000.0001) generate Phyto: np =    9 FIXED - no DIAZO
(PID.TID 0000.0001) generate Phyto: np =    9 Topt       =   29.9905760000000
(PID.TID 0000.0001) generate Phyto: np =    9 growthdays =  0.700000000000000
(PID.TID 0000.0001) generate Phyto: np =    9 ksatPAR    =  6.889656901434840E-002
(PID.TID 0000.0001) generate Phyto: np =    9 kinhib     =   5.96115249392937
(PID.TID 0000.0001) generate Phyto: np =   10 FIXED - no DIAZO
(PID.TID 0000.0001) generate Phyto: np =   10 Topt       =   5.39869600000000
(PID.TID 0000.0001) generate Phyto: np =   10 growthdays =  0.400000000000000
(PID.TID 0000.0001) generate Phyto: np =   10 ksatPAR    =  0.124781017116400
(PID.TID 0000.0001) generate Phyto: np =   10 kinhib     =  0.967268711527369
(PID.TID 0000.0001) generate Phyto: np =   11 FIXED - no DIAZO
(PID.TID 0000.0001) generate Phyto: np =   11 Topt       =   21.4964720000000
(PID.TID 0000.0001) generate Phyto: np =   11 growthdays =  0.400000000000000
(PID.TID 0000.0001) generate Phyto: np =   11 ksatPAR    =  0.147515462286491
(PID.TID 0000.0001) generate Phyto: np =   11 kinhib     =  0.986772247214294
(PID.TID 0000.0001) generate Phyto: np =   12 FIXED - no DIAZO
(PID.TID 0000.0001) generate Phyto: np =   12 Topt       =   24.0225600000000
(PID.TID 0000.0001) generate Phyto: np =   12 growthdays =  0.700000000000000
(PID.TID 0000.0001) generate Phyto: np =   12 ksatPAR    =  0.527110249090556
(PID.TID 0000.0001) generate Phyto: np =   12 kinhib     =   5.92012798922102
(PID.TID 0000.0001) generate Phyto: np =   13 FIXED - no DIAZO
(PID.TID 0000.0001) generate Phyto: np =   13 Topt       =   13.0024000000000
(PID.TID 0000.0001) generate Phyto: np =   13 growthdays =  0.400000000000000
(PID.TID 0000.0001) generate Phyto: np =   13 ksatPAR    =  0.204149722455236
(PID.TID 0000.0001) generate Phyto: np =   13 kinhib     =  0.946347461111155
(PID.TID 0000.0001) generate Phyto: np =   14 FIXED - no DIAZO
(PID.TID 0000.0001) generate Phyto: np =   14 Topt       =  0.834080000000000
(PID.TID 0000.0001) generate Phyto: np =   14 growthdays =  0.700000000000000
(PID.TID 0000.0001) generate Phyto: np =   14 ksatPAR    =  3.422101821949280E-002
(PID.TID 0000.0001) generate Phyto: np =   14 kinhib     =   5.89641706309178
(PID.TID 0000.0001) generate Phyto: np =   15 FIXED - no DIAZO
(PID.TID 0000.0001) generate Phyto: np =   15 Topt       =   22.6453920000000
(PID.TID 0000.0001) generate Phyto: np =   15 growthdays =  0.400000000000000
(PID.TID 0000.0001) generate Phyto: np =   15 ksatPAR    =  9.602835858486984E-002
(PID.TID 0000.0001) generate Phyto: np =   15 kinhib     =   1.01566976029158
(PID.TID 0000.0001) generate Phyto: np =   16 FIXED - no DIAZO
(PID.TID 0000.0001) generate Phyto: np =   16 Topt       =   2.82448800000000
(PID.TID 0000.0001) generate Phyto: np =   16 growthdays =  0.400000000000000
(PID.TID 0000.0001) generate Phyto: np =   16 ksatPAR    =  0.124763361840688
(PID.TID 0000.0001) generate Phyto: np =   16 kinhib     =  0.993689751936445
(PID.TID 0000.0001) generate Phyto: np =   17 FIXED - no DIAZO
(PID.TID 0000.0001) generate Phyto: np =   17 Topt       =   13.3291520000000
(PID.TID 0000.0001) generate Phyto: np =   17 growthdays =  0.700000000000000
(PID.TID 0000.0001) generate Phyto: np =   17 ksatPAR    =  5.351651701043164E-002
(PID.TID 0000.0001) generate Phyto: np =   17 kinhib     =   6.01826919046567
(PID.TID 0000.0001) generate Phyto: np =   18 FIXED - no DIAZO
(PID.TID 0000.0001) generate Phyto: np =   18 Topt       =   28.0095920000000
(PID.TID 0000.0001) generate Phyto: np =   18 growthdays =  0.400000000000000
(PID.TID 0000.0001) generate Phyto: np =   18 ksatPAR    =  0.196540447082229
(PID.TID 0000.0001) generate Phyto: np =   18 kinhib     =   1.10282485155531
(PID.TID 0000.0001) generate Phyto: np =   19 FIXED - no DIAZO
(PID.TID 0000.0001) generate Phyto: np =   19 Topt       =   29.5336720000000
(PID.TID 0000.0001) generate Phyto: np =   19 growthdays =  0.400000000000000
(PID.TID 0000.0001) generate Phyto: np =   19 ksatPAR    =  0.179678102948583
(PID.TID 0000.0001) generate Phyto: np =   19 kinhib     =  0.919318815896245
(PID.TID 0000.0001) generate Phyto: np =   20 FIXED - no DIAZO
(PID.TID 0000.0001) generate Phyto: np =   20 Topt       =   22.1113360000000
(PID.TID 0000.0001) generate Phyto: np =   20 growthdays =  0.700000000000000
(PID.TID 0000.0001) generate Phyto: np =   20 ksatPAR    =  0.154385749117443
(PID.TID 0000.0001) generate Phyto: np =   20 kinhib     =   5.97068282023009
(PID.TID 0000.0001) generate Phyto: np =   21 FIXED - no DIAZO
(PID.TID 0000.0001) generate Phyto: np =   21 Topt       =  -1.62076800000000
(PID.TID 0000.0001) generate Phyto: np =   21 growthdays =  0.400000000000000
(PID.TID 0000.0001) generate Phyto: np =   21 ksatPAR    =  0.104460811625040
(PID.TID 0000.0001) generate Phyto: np =   21 kinhib     =   1.02770558674108
(PID.TID 0000.0001) generate Phyto: np =   22 FIXED - no DIAZO
(PID.TID 0000.0001) generate Phyto: np =   22 Topt       =   6.43084000000000
(PID.TID 0000.0001) generate Phyto: np =   22 growthdays =  0.700000000000000
(PID.TID 0000.0001) generate Phyto: np =   22 ksatPAR    =  6.257368061992452E-003
(PID.TID 0000.0001) generate Phyto: np =   22 kinhib     =   5.84339306619059
(PID.TID 0000.0001) generate Phyto: np =   23 FIXED - no DIAZO
(PID.TID 0000.0001) generate Phyto: np =   23 Topt       =   18.7486240000000
(PID.TID 0000.0001) generate Phyto: np =   23 growthdays =  0.400000000000000
(PID.TID 0000.0001) generate Phyto: np =   23 ksatPAR    =  3.090353819970153E-002
(PID.TID 0000.0001) generate Phyto: np =   23 kinhib     =  0.976250189021231
(PID.TID 0000.0001) generate Phyto: np =   24 FIXED - no DIAZO
(PID.TID 0000.0001) generate Phyto: np =   24 Topt       =   9.57925600000000
(PID.TID 0000.0001) generate Phyto: np =   24 growthdays =  0.700000000000000
(PID.TID 0000.0001) generate Phyto: np =   24 ksatPAR    =  0.271269857014354
(PID.TID 0000.0001) generate Phyto: np =   24 kinhib     =   6.16622468352471
(PID.TID 0000.0001) generate Phyto: np =   25 FIXED - no DIAZO
(PID.TID 0000.0001) generate Phyto: np =   25 Topt       =   9.46773600000000
(PID.TID 0000.0001) generate Phyto: np =   25 growthdays =  0.400000000000000
(PID.TID 0000.0001) generate Phyto: np =   25 ksatPAR    =  5.177191043070091E-002
(PID.TID 0000.0001) generate Phyto: np =   25 kinhib     =   1.10904677073088
(PID.TID 0000.0001) generate Phyto: np =   26 FIXED - no DIAZO
(PID.TID 0000.0001) generate Phyto: np =   26 Topt       =   14.1060480000000
(PID.TID 0000.0001) generate Phyto: np =   26 growthdays =  0.400000000000000
(PID.TID 0000.0001) generate Phyto: np =   26 ksatPAR    =  0.135684942592547
(PID.TID 0000.0001) generate Phyto: np =   26 kinhib     =  0.941402890695480
(PID.TID 0000.0001) generate Phyto: np =   27 FIXED - no DIAZO
(PID.TID 0000.0001) generate Phyto: np =   27 Topt       =   22.8044160000000
(PID.TID 0000.0001) generate Phyto: np =   27 growthdays =  0.400000000000000
(PID.TID 0000.0001) generate Phyto: np =   27 ksatPAR    =  0.172472984387804
(PID.TID 0000.0001) generate Phyto: np =   27 kinhib     =   1.02442046262991
(PID.TID 0000.0001) generate Phyto: np =   28 FIXED - no DIAZO
(PID.TID 0000.0001) generate Phyto: np =   28 Topt       =   29.4197600000000
(PID.TID 0000.0001) generate Phyto: np =   28 growthdays =  0.400000000000000
(PID.TID 0000.0001) generate Phyto: np =   28 ksatPAR    =  0.134458926757846
(PID.TID 0000.0001) generate Phyto: np =   28 kinhib     =  0.990541525884293
(PID.TID 0000.0001) generate Phyto: np =   29 FIXED - no DIAZO
(PID.TID 0000.0001) generate Phyto: np =   29 Topt       =   26.5193280000000
(PID.TID 0000.0001) generate Phyto: np =   29 growthdays =  0.700000000000000
(PID.TID 0000.0001) generate Phyto: np =   29 ksatPAR    =  0.186439589683888
(PID.TID 0000.0001) generate Phyto: np =   29 kinhib     =   5.87422363112705
(PID.TID 0000.0001) generate Phyto: np =   30 FIXED - no DIAZO
(PID.TID 0000.0001) generate Phyto: np =   30 Topt       =   9.80770400000000
(PID.TID 0000.0001) generate Phyto: np =   30 growthdays =  0.700000000000000
(PID.TID 0000.0001) generate Phyto: np =   30 ksatPAR    =  0.342472354626977
(PID.TID 0000.0001) generate Phyto: np =   30 kinhib     =   6.08059410854512
(PID.TID 0000.0001) generate Phyto: np =   31 FIXED - no DIAZO
(PID.TID 0000.0001) generate Phyto: np =   31 Topt       =   11.0381840000000
(PID.TID 0000.0001) generate Phyto: np =   31 growthdays =  0.400000000000000
(PID.TID 0000.0001) generate Phyto: np =   31 ksatPAR    =  8.480537880079783E-002
(PID.TID 0000.0001) generate Phyto: np =   31 kinhib     =   1.06525656160335
(PID.TID 0000.0001) generate Phyto: np =   32 FIXED - no DIAZO
(PID.TID 0000.0001) generate Phyto: np =   32 Topt       =   25.3502480000000
(PID.TID 0000.0001) generate Phyto: np =   32 growthdays =  0.700000000000000
(PID.TID 0000.0001) generate Phyto: np =   32 ksatPAR    =  0.193436228301583
(PID.TID 0000.0001) generate Phyto: np =   32 kinhib     =   6.22846922680204
(PID.TID 0000.0001) generate Phyto: np =   33 FIXED - no DIAZO
(PID.TID 0000.0001) generate Phyto: np =   33 Topt       =   18.9673200000000
(PID.TID 0000.0001) generate Phyto: np =   33 growthdays =  0.400000000000000
(PID.TID 0000.0001) generate Phyto: np =   33 ksatPAR    =  0.203216458595352
(PID.TID 0000.0001) generate Phyto: np =   33 kinhib     =  0.982966195202196
(PID.TID 0000.0001) generate Phyto: np =   34 FIXED - no DIAZO
(PID.TID 0000.0001) generate Phyto: np =   34 Topt       =   23.5114240000000
(PID.TID 0000.0001) generate Phyto: np =   34 growthdays =  0.700000000000000
(PID.TID 0000.0001) generate Phyto: np =   34 ksatPAR    =  0.141350011321056
(PID.TID 0000.0001) generate Phyto: np =   34 kinhib     =   5.96261898660398
(PID.TID 0000.0001) generate Phyto: np =   35 FIXED - no DIAZO
(PID.TID 0000.0001) generate Phyto: np =   35 Topt       = -0.994647999999998
(PID.TID 0000.0001) generate Phyto: np =   35 growthdays =  0.700000000000000
(PID.TID 0000.0001) generate Phyto: np =   35 ksatPAR    =  0.268136053039389
(PID.TID 0000.0001) generate Phyto: np =   35 kinhib     =   5.95083885927037
(PID.TID 0000.0001) generate Phyto: np =   36 FIXED - no DIAZO
(PID.TID 0000.0001) generate Phyto: np =   36 Topt       =   23.5430640000000
(PID.TID 0000.0001) generate Phyto: np =   36 growthdays =  0.700000000000000
(PID.TID 0000.0001) generate Phyto: np =   36 ksatPAR    =  0.168364918798085
(PID.TID 0000.0001) generate Phyto: np =   36 kinhib     =   6.03122182876500
(PID.TID 0000.0001) generate Phyto: np =   37 FIXED - no DIAZO
(PID.TID 0000.0001) generate Phyto: np =   37 Topt       =   7.68813600000000
(PID.TID 0000.0001) generate Phyto: np =   37 growthdays =  0.400000000000000
(PID.TID 0000.0001) generate Phyto: np =   37 ksatPAR    =  7.111491396797376E-002
(PID.TID 0000.0001) generate Phyto: np =   37 kinhib     =  0.982378357246977
(PID.TID 0000.0001) generate Phyto: np =   38 FIXED - no DIAZO
(PID.TID 0000.0001) generate Phyto: np =   38 Topt       =   9.77611200000000
(PID.TID 0000.0001) generate Phyto: np =   38 growthdays =  0.700000000000000
(PID.TID 0000.0001) generate Phyto: np =   38 ksatPAR    =  0.558103188744646
(PID.TID 0000.0001) generate Phyto: np =   38 kinhib     =   6.04554791190068
(PID.TID 0000.0001) generate Phyto: np =   39 FIXED - no DIAZO
(PID.TID 0000.0001) generate Phyto: np =   39 Topt       =   14.8509840000000
(PID.TID 0000.0001) generate Phyto: np =   39 growthdays =  0.700000000000000
(PID.TID 0000.0001) generate Phyto: np =   39 ksatPAR    =  0.306493477779170
(PID.TID 0000.0001) generate Phyto: np =   39 kinhib     =   6.01997061644693
(PID.TID 0000.0001) generate Phyto: np =   40 FIXED - no DIAZO
(PID.TID 0000.0001) generate Phyto: np =   40 Topt       =   9.69444000000000
(PID.TID 0000.0001) generate Phyto: np =   40 growthdays =  0.700000000000000
(PID.TID 0000.0001) generate Phyto: np =   40 ksatPAR    =  3.118965550680350E-002
(PID.TID 0000.0001) generate Phyto: np =   40 kinhib     =   6.06571365791321
(PID.TID 0000.0001) generate Phyto: np =   41 FIXED - no DIAZO
(PID.TID 0000.0001) generate Phyto: np =   41 Topt       =  0.896552000000000
(PID.TID 0000.0001) generate Phyto: np =   41 growthdays =  0.700000000000000
(PID.TID 0000.0001) generate Phyto: np =   41 ksatPAR    =  0.378236796762638
(PID.TID 0000.0001) generate Phyto: np =   41 kinhib     =   5.91288844670683
(PID.TID 0000.0001) generate Phyto: np =   42 FIXED - no DIAZO
(PID.TID 0000.0001) generate Phyto: np =   42 Topt       =   18.2552160000000
(PID.TID 0000.0001) generate Phyto: np =   42 growthdays =  0.700000000000000
(PID.TID 0000.0001) generate Phyto: np =   42 ksatPAR    =  0.318117928473921
(PID.TID 0000.0001) generate Phyto: np =   42 kinhib     =   6.16327023262238
(PID.TID 0000.0001) generate Phyto: np =   43 FIXED - no DIAZO
(PID.TID 0000.0001) generate Phyto: np =   43 Topt       =   16.6858720000000
(PID.TID 0000.0001) generate Phyto: np =   43 growthdays =  0.700000000000000
(PID.TID 0000.0001) generate Phyto: np =   43 ksatPAR    =  2.813436232842084E-002
(PID.TID 0000.0001) generate Phyto: np =   43 kinhib     =   6.18380297878198
(PID.TID 0000.0001) generate Phyto: np =   44 FIXED - no DIAZO
(PID.TID 0000.0001) generate Phyto: np =   44 Topt       =   22.1173760000000
(PID.TID 0000.0001) generate Phyto: np =   44 growthdays =  0.700000000000000
(PID.TID 0000.0001) generate Phyto: np =   44 ksatPAR    =  0.406789259398356
(PID.TID 0000.0001) generate Phyto: np =   44 kinhib     =   5.82017318083649
(PID.TID 0000.0001) generate Phyto: np =   45 FIXED - no DIAZO
(PID.TID 0000.0001) generate Phyto: np =   45 Topt       =   29.0926560000000
(PID.TID 0000.0001) generate Phyto: np =   45 growthdays =  0.700000000000000
(PID.TID 0000.0001) generate Phyto: np =   45 ksatPAR    =  5.256365242361946E-002
(PID.TID 0000.0001) generate Phyto: np =   45 kinhib     =   6.00777112345545
(PID.TID 0000.0001) generate Phyto: np =   46 FIXED - no DIAZO
(PID.TID 0000.0001) generate Phyto: np =   46 Topt       =   11.3758720000000
(PID.TID 0000.0001) generate Phyto: np =   46 growthdays =  0.700000000000000
(PID.TID 0000.0001) generate Phyto: np =   46 ksatPAR    =  3.381066456941417E-002
(PID.TID 0000.0001) generate Phyto: np =   46 kinhib     =   5.92689577107084
(PID.TID 0000.0001) generate Phyto: np =   47 FIXED - no DIAZO
(PID.TID 0000.0001) generate Phyto: np =   47 Topt       =   6.38521600000000
(PID.TID 0000.0001) generate Phyto: np =   47 growthdays =  0.700000000000000
(PID.TID 0000.0001) generate Phyto: np =   47 ksatPAR    =  0.200448942387463
(PID.TID 0000.0001) generate Phyto: np =   47 kinhib     =   6.00706705760867
(PID.TID 0000.0001) generate Phyto: np =   48 FIXED - no DIAZO
(PID.TID 0000.0001) generate Phyto: np =   48 Topt       =   29.5485520000000
(PID.TID 0000.0001) generate Phyto: np =   48 growthdays =  0.700000000000000
(PID.TID 0000.0001) generate Phyto: np =   48 ksatPAR    =  0.279808409368532
(PID.TID 0000.0001) generate Phyto: np =   48 kinhib     =   5.94155347123765
(PID.TID 0000.0001) generate Phyto: np =   49 FIXED - no DIAZO
(PID.TID 0000.0001) generate Phyto: np =   49 Topt       =   23.5670480000000
(PID.TID 0000.0001) generate Phyto: np =   49 growthdays =  0.400000000000000
(PID.TID 0000.0001) generate Phyto: np =   49 ksatPAR    =  0.185214720063780
(PID.TID 0000.0001) generate Phyto: np =   49 kinhib     =   1.06236127039999
(PID.TID 0000.0001) generate Phyto: np =   50 FIXED - no DIAZO
(PID.TID 0000.0001) generate Phyto: np =   50 Topt       = -0.443591999999999
(PID.TID 0000.0001) generate Phyto: np =   50 growthdays =  0.400000000000000
(PID.TID 0000.0001) generate Phyto: np =   50 ksatPAR    =  0.139724863181137
(PID.TID 0000.0001) generate Phyto: np =   50 kinhib     =  0.995237786860751
(PID.TID 0000.0001) generate Phyto: np =   51 FIXED - no DIAZO
(PID.TID 0000.0001) generate Phyto: np =   51 Topt       =  -1.58132000000000
(PID.TID 0000.0001) generate Phyto: np =   51 growthdays =  0.700000000000000
(PID.TID 0000.0001) generate Phyto: np =   51 ksatPAR    =  0.157344897351611
(PID.TID 0000.0001) generate Phyto: np =   51 kinhib     =   5.92057752401380
(PID.TID 0000.0001) generate Phyto: np =   52 FIXED - no DIAZO
(PID.TID 0000.0001) generate Phyto: np =   52 Topt       =   11.6882800000000
(PID.TID 0000.0001) generate Phyto: np =   52 growthdays =  0.400000000000000
(PID.TID 0000.0001) generate Phyto: np =   52 ksatPAR    =  0.128041314130097
(PID.TID 0000.0001) generate Phyto: np =   52 kinhib     =   1.03417292656155
(PID.TID 0000.0001) generate Phyto: np =   53 FIXED - no DIAZO
(PID.TID 0000.0001) generate Phyto: np =   53 Topt       =   16.6421520000000
(PID.TID 0000.0001) generate Phyto: np =   53 growthdays =  0.700000000000000
(PID.TID 0000.0001) generate Phyto: np =   53 ksatPAR    =  0.516202474314366
(PID.TID 0000.0001) generate Phyto: np =   53 kinhib     =   6.07369643705530
(PID.TID 0000.0001) generate Phyto: np =   54 FIXED - no DIAZO
(PID.TID 0000.0001) generate Phyto: np =   54 Topt       =   20.9403920000000
(PID.TID 0000.0001) generate Phyto: np =   54 growthdays =  0.400000000000000
(PID.TID 0000.0001) generate Phyto: np =   54 ksatPAR    =  0.206679164151945
(PID.TID 0000.0001) generate Phyto: np =   54 kinhib     =   1.03343045842120
(PID.TID 0000.0001) generate Phyto: np =   55 FIXED - no DIAZO
(PID.TID 0000.0001) generate Phyto: np =   55 Topt       =   19.1291920000000
(PID.TID 0000.0001) generate Phyto: np =   55 growthdays =  0.400000000000000
(PID.TID 0000.0001) generate Phyto: np =   55 ksatPAR    =  4.070672410424155E-002
(PID.TID 0000.0001) generate Phyto: np =   55 kinhib     =  0.989520210171635
(PID.TID 0000.0001) generate Phyto: np =   56 FIXED - no DIAZO
(PID.TID 0000.0001) generate Phyto: np =   56 Topt       =   18.3917360000000
(PID.TID 0000.0001) generate Phyto: np =   56 growthdays =  0.400000000000000
(PID.TID 0000.0001) generate Phyto: np =   56 ksatPAR    =  0.155579067567054
(PID.TID 0000.0001) generate Phyto: np =   56 kinhib     =  0.966046839298621
(PID.TID 0000.0001) generate Phyto: np =   57 FIXED - no DIAZO
(PID.TID 0000.0001) generate Phyto: np =   57 Topt       =   10.6107120000000
(PID.TID 0000.0001) generate Phyto: np =   57 growthdays =  0.700000000000000
(PID.TID 0000.0001) generate Phyto: np =   57 ksatPAR    =  0.231358313721257
(PID.TID 0000.0001) generate Phyto: np =   57 kinhib     =   6.02438216615679
(PID.TID 0000.0001) generate Phyto: np =   58 FIXED - no DIAZO
(PID.TID 0000.0001) generate Phyto: np =   58 Topt       =   22.7951440000000
(PID.TID 0000.0001) generate Phyto: np =   58 growthdays =  0.400000000000000
(PID.TID 0000.0001) generate Phyto: np =   58 ksatPAR    =  0.101041476273838
(PID.TID 0000.0001) generate Phyto: np =   58 kinhib     =   1.02017769086566
(PID.TID 0000.0001) generate Phyto: np =   59 FIXED - no DIAZO
(PID.TID 0000.0001) generate Phyto: np =   59 Topt       =   10.2133920000000
(PID.TID 0000.0001) generate Phyto: np =   59 growthdays =  0.400000000000000
(PID.TID 0000.0001) generate Phyto: np =   59 ksatPAR    =  0.133093936701744
(PID.TID 0000.0001) generate Phyto: np =   59 kinhib     =  0.999785682090672
(PID.TID 0000.0001) generate Phyto: np =   60 FIXED - no DIAZO
(PID.TID 0000.0001) generate Phyto: np =   60 Topt       =   23.7467920000000
(PID.TID 0000.0001) generate Phyto: np =   60 growthdays =  0.400000000000000
(PID.TID 0000.0001) generate Phyto: np =   60 ksatPAR    =  9.190118508369936E-002
(PID.TID 0000.0001) generate Phyto: np =   60 kinhib     =  0.983177609461982
(PID.TID 0000.0001) generate Phyto: np =   61 FIXED - no DIAZO
(PID.TID 0000.0001) generate Phyto: np =   61 Topt       =   10.1935040000000
(PID.TID 0000.0001) generate Phyto: np =   61 growthdays =  0.400000000000000
(PID.TID 0000.0001) generate Phyto: np =   61 ksatPAR    =  9.105329935178616E-002
(PID.TID 0000.0001) generate Phyto: np =   61 kinhib     =   1.03599245224756
(PID.TID 0000.0001) generate Phyto: np =   62 FIXED - no DIAZO
(PID.TID 0000.0001) generate Phyto: np =   62 Topt       =   28.5815520000000
(PID.TID 0000.0001) generate Phyto: np =   62 growthdays =  0.400000000000000
(PID.TID 0000.0001) generate Phyto: np =   62 ksatPAR    =  2.742531995377209E-002
(PID.TID 0000.0001) generate Phyto: np =   62 kinhib     =   1.03568114400114
(PID.TID 0000.0001) generate Phyto: np =   63 FIXED - no DIAZO
(PID.TID 0000.0001) generate Phyto: np =   63 Topt       =   6.57254400000000
(PID.TID 0000.0001) generate Phyto: np =   63 growthdays =  0.400000000000000
(PID.TID 0000.0001) generate Phyto: np =   63 ksatPAR    =  3.344158430968763E-002
(PID.TID 0000.0001) generate Phyto: np =   63 kinhib     =  0.951329921943717
(PID.TID 0000.0001) generate Phyto: np =   64 FIXED - no DIAZO
(PID.TID 0000.0001) generate Phyto: np =   64 Topt       =   5.89556800000000
(PID.TID 0000.0001) generate Phyto: np =   64 growthdays =  0.400000000000000
(PID.TID 0000.0001) generate Phyto: np =   64 ksatPAR    =  8.454186077698291E-002
(PID.TID 0000.0001) generate Phyto: np =   64 kinhib     =  0.983422366682897
(PID.TID 0000.0001) generate Phyto: np =   65 FIXED - no DIAZO
(PID.TID 0000.0001) generate Phyto: np =   65 Topt       =   29.2508640000000
(PID.TID 0000.0001) generate Phyto: np =   65 growthdays =  0.700000000000000
(PID.TID 0000.0001) generate Phyto: np =   65 ksatPAR    =  0.148228921491778
(PID.TID 0000.0001) generate Phyto: np =   65 kinhib     =   6.16458534282529
(PID.TID 0000.0001) generate Phyto: np =   66 FIXED - no DIAZO
(PID.TID 0000.0001) generate Phyto: np =   66 Topt       =   9.81012000000000
(PID.TID 0000.0001) generate Phyto: np =   66 growthdays =  0.700000000000000
(PID.TID 0000.0001) generate Phyto: np =   66 ksatPAR    =  0.159482456193842
(PID.TID 0000.0001) generate Phyto: np =   66 kinhib     =   6.04083675475049
(PID.TID 0000.0001) generate Phyto: np =   67 FIXED - no DIAZO
(PID.TID 0000.0001) generate Phyto: np =   67 Topt       =   7.57160000000000
(PID.TID 0000.0001) generate Phyto: np =   67 growthdays =  0.700000000000000
(PID.TID 0000.0001) generate Phyto: np =   67 ksatPAR    =  0.122729910282547
(PID.TID 0000.0001) generate Phyto: np =   67 kinhib     =   5.97845222890357
(PID.TID 0000.0001) generate Phyto: np =   68 FIXED - no DIAZO
(PID.TID 0000.0001) generate Phyto: np =   68 Topt       =   26.8996720000000
(PID.TID 0000.0001) generate Phyto: np =   68 growthdays =  0.700000000000000
(PID.TID 0000.0001) generate Phyto: np =   68 ksatPAR    =  0.298022768335670
(PID.TID 0000.0001) generate Phyto: np =   68 kinhib     =   5.95484943326809
(PID.TID 0000.0001) generate Phyto: np =   69 FIXED - no DIAZO
(PID.TID 0000.0001) generate Phyto: np =   69 Topt       =   1.16207200000000
(PID.TID 0000.0001) generate Phyto: np =   69 growthdays =  0.400000000000000
(PID.TID 0000.0001) generate Phyto: np =   69 ksatPAR    =  0.172402000511801
(PID.TID 0000.0001) generate Phyto: np =   69 kinhib     =   1.01380266552364
(PID.TID 0000.0001) generate Phyto: np =   70 FIXED - no DIAZO
(PID.TID 0000.0001) generate Phyto: np =   70 Topt       =   2.77416800000000
(PID.TID 0000.0001) generate Phyto: np =   70 growthdays =  0.700000000000000
(PID.TID 0000.0001) generate Phyto: np =   70 ksatPAR    =  0.235275794605117
(PID.TID 0000.0001) generate Phyto: np =   70 kinhib     =   5.94674911430353
(PID.TID 0000.0001) generate Phyto: np =   71 FIXED - no DIAZO
(PID.TID 0000.0001) generate Phyto: np =   71 Topt       =   28.3795200000000
(PID.TID 0000.0001) generate Phyto: np =   71 growthdays =  0.400000000000000
(PID.TID 0000.0001) generate Phyto: np =   71 ksatPAR    =  0.100229095506343
(PID.TID 0000.0001) generate Phyto: np =   71 kinhib     =  0.957470697882402
(PID.TID 0000.0001) generate Phyto: np =   72 FIXED - no DIAZO
(PID.TID 0000.0001) generate Phyto: np =   72 Topt       =   25.7481520000000
(PID.TID 0000.0001) generate Phyto: np =   72 growthdays =  0.700000000000000
(PID.TID 0000.0001) generate Phyto: np =   72 ksatPAR    =  3.069286888177783E-002
(PID.TID 0000.0001) generate Phyto: np =   72 kinhib     =   5.93650735975478
(PID.TID 0000.0001) generate Phyto: np =   73 FIXED - no DIAZO
(PID.TID 0000.0001) generate Phyto: np =   73 Topt       =   15.2441120000000
(PID.TID 0000.0001) generate Phyto: np =   73 growthdays =  0.700000000000000
(PID.TID 0000.0001) generate Phyto: np =   73 ksatPAR    =  0.194471052203403
(PID.TID 0000.0001) generate Phyto: np =   73 kinhib     =   5.92087292662694
(PID.TID 0000.0001) generate Phyto: np =   74 FIXED - no DIAZO
(PID.TID 0000.0001) generate Phyto: np =   74 Topt       =   28.0978400000000
(PID.TID 0000.0001) generate Phyto: np =   74 growthdays =  0.400000000000000
(PID.TID 0000.0001) generate Phyto: np =   74 ksatPAR    =  0.103404998317622
(PID.TID 0000.0001) generate Phyto: np =   74 kinhib     =   1.02845918471007
(PID.TID 0000.0001) generate Phyto: np =   75 FIXED - no DIAZO
(PID.TID 0000.0001) generate Phyto: np =   75 Topt       =   14.4243200000000
(PID.TID 0000.0001) generate Phyto: np =   75 growthdays =  0.700000000000000
(PID.TID 0000.0001) generate Phyto: np =   75 ksatPAR    =  0.270637312891584
(PID.TID 0000.0001) generate Phyto: np =   75 kinhib     =   5.89937583925638
(PID.TID 0000.0001) generate Phyto: np =   76 FIXED - no DIAZO
(PID.TID 0000.0001) generate Phyto: np =   76 Topt       =   11.9099360000000
(PID.TID 0000.0001) generate Phyto: np =   76 growthdays =  0.700000000000000
(PID.TID 0000.0001) generate Phyto: np =   76 ksatPAR    =  0.474034438536840
(PID.TID 0000.0001) generate Phyto: np =   76 kinhib     =   6.10111785984735
(PID.TID 0000.0001) generate Phyto: np =   77 FIXED - no DIAZO
(PID.TID 0000.0001) generate Phyto: np =   77 Topt       =   19.2798560000000
(PID.TID 0000.0001) generate Phyto: np =   77 growthdays =  0.700000000000000
(PID.TID 0000.0001) generate Phyto: np =   77 ksatPAR    =  4.748265146449229E-002
(PID.TID 0000.0001) generate Phyto: np =   77 kinhib     =   5.92859646685737
(PID.TID 0000.0001) generate Phyto: np =   78 FIXED - no DIAZO
(PID.TID 0000.0001) generate Phyto: np =   78 Topt       =   26.8287680000000
(PID.TID 0000.0001) generate Phyto: np =   78 growthdays =  0.400000000000000
(PID.TID 0000.0001) generate Phyto: np =   78 ksatPAR    =  0.157111603428932
(PID.TID 0000.0001) generate Phyto: np =   78 kinhib     =   1.02881501025404
(PID.TID 0000.0001) // =======================================================
(PID.TID 0000.0001) // Darwin init variables >>> END <<<
(PID.TID 0000.0001) // =======================================================
(PID.TID 0000.0001)  MDS_READ_SEC_XZ: opening global file: OBNu_baltic_76x72.bin
(PID.TID 0000.0001)  MDS_READ_SEC_XZ: opening global file: OBNu_baltic_76x72.bin
(PID.TID 0000.0001)  MDS_READ_SEC_XZ: opening global file: OBNv_baltic_76x72.bin
(PID.TID 0000.0001)  MDS_READ_SEC_XZ: opening global file: OBNv_baltic_76x72.bin
(PID.TID 0000.0001)  MDS_READ_SEC_XZ: opening global file: OBNt_baltic_76x72.stable
(PID.TID 0000.0001)  MDS_READ_SEC_XZ: opening global file: OBNt_baltic_76x72.stable
(PID.TID 0000.0001)  MDS_READ_SEC_XZ: opening global file: OBNs_baltic_76x72.stable
(PID.TID 0000.0001)  MDS_READ_SEC_XZ: opening global file: OBNs_baltic_76x72.stable
(PID.TID 0000.0001)  MDS_READ_SEC_XZ: opening global file: OBN_PO4_76x72x24_baltic_128.bin
(PID.TID 0000.0001)  MDS_READ_SEC_XZ: opening global file: OBN_PO4_76x72x24_baltic_128.bin
(PID.TID 0000.0001)  MDS_READ_SEC_XZ: opening global file: OBN_NO3_76x72x24_baltic_128.bin
(PID.TID 0000.0001)  MDS_READ_SEC_XZ: opening global file: OBN_NO3_76x72x24_baltic_128.bin
(PID.TID 0000.0001)  MDS_READ_SEC_XZ: opening global file: OBN_FeT_76x72x24_baltic_128.bin
(PID.TID 0000.0001)  MDS_READ_SEC_XZ: opening global file: OBN_FeT_76x72x24_baltic_128.bin
(PID.TID 0000.0001)  MDS_READ_SEC_XZ: opening global file: OBN_SiO2_76x72x24_baltic_128.bin
(PID.TID 0000.0001)  MDS_READ_SEC_XZ: opening global file: OBN_SiO2_76x72x24_baltic_128.bin
(PID.TID 0000.0001)  MDS_READ_SEC_XZ: opening global file: OBN_DOP_76x72x24_baltic_128.bin
(PID.TID 0000.0001)  MDS_READ_SEC_XZ: opening global file: OBN_DOP_76x72x24_baltic_128.bin
(PID.TID 0000.0001)  MDS_READ_SEC_XZ: opening global file: OBN_DON_76x72x24_baltic_128.bin
(PID.TID 0000.0001)  MDS_READ_SEC_XZ: opening global file: OBN_DON_76x72x24_baltic_128.bin
(PID.TID 0000.0001)  MDS_READ_SEC_XZ: opening global file: OBN_DOFe_76x72x24_baltic_128.bin
(PID.TID 0000.0001)  MDS_READ_SEC_XZ: opening global file: OBN_DOFe_76x72x24_baltic_128.bin
(PID.TID 0000.0001)  MDS_READ_SEC_XZ: opening global file: OBN_ZOO1P_76x72x24_baltic_128.bin
(PID.TID 0000.0001)  MDS_READ_SEC_XZ: opening global file: OBN_ZOO1P_76x72x24_baltic_128.bin
(PID.TID 0000.0001)  MDS_READ_SEC_XZ: opening global file: OBN_ZOO1N_76x72x24_baltic_128.bin
(PID.TID 0000.0001)  MDS_READ_SEC_XZ: opening global file: OBN_ZOO1N_76x72x24_baltic_128.bin
(PID.TID 0000.0001)  MDS_READ_SEC_XZ: opening global file: OBN_ZOO1Fe_76x72x24_baltic_128.bin
(PID.TID 0000.0001)  MDS_READ_SEC_XZ: opening global file: OBN_ZOO1Fe_76x72x24_baltic_128.bin
(PID.TID 0000.0001)  MDS_READ_SEC_XZ: opening global file: OBN_ZOO1Si_76x72x24_baltic_128.bin
(PID.TID 0000.0001)  MDS_READ_SEC_XZ: opening global file: OBN_ZOO1Si_76x72x24_baltic_128.bin
(PID.TID 0000.0001)  MDS_READ_SEC_XZ: opening global file: OBN_ZOO2P_76x72x24_baltic_128.bin
(PID.TID 0000.0001)  MDS_READ_SEC_XZ: opening global file: OBN_ZOO2P_76x72x24_baltic_128.bin
(PID.TID 0000.0001)  MDS_READ_SEC_XZ: opening global file: OBN_ZOO2N_76x72x24_baltic_128.bin
(PID.TID 0000.0001)  MDS_READ_SEC_XZ: opening global file: OBN_ZOO2N_76x72x24_baltic_128.bin
(PID.TID 0000.0001)  MDS_READ_SEC_XZ: opening global file: OBN_ZOO2Fe_76x72x24_baltic_128.bin
(PID.TID 0000.0001)  MDS_READ_SEC_XZ: opening global file: OBN_ZOO2Fe_76x72x24_baltic_128.bin
(PID.TID 0000.0001)  MDS_READ_SEC_XZ: opening global file: OBN_ZOO2Si_76x72x24_baltic_128.bin
(PID.TID 0000.0001)  MDS_READ_SEC_XZ: opening global file: OBN_ZOO2Si_76x72x24_baltic_128.bin
(PID.TID 0000.0001)  MDS_READ_SEC_XZ: opening global file: OBN_POP_76x72x24_baltic_128.bin
(PID.TID 0000.0001)  MDS_READ_SEC_XZ: opening global file: OBN_POP_76x72x24_baltic_128.bin
(PID.TID 0000.0001)  MDS_READ_SEC_XZ: opening global file: OBN_PON_76x72x24_baltic_128.bin
(PID.TID 0000.0001)  MDS_READ_SEC_XZ: opening global file: OBN_PON_76x72x24_baltic_128.bin
(PID.TID 0000.0001)  MDS_READ_SEC_XZ: opening global file: OBN_POFe_76x72x24_baltic_128.bin
(PID.TID 0000.0001)  MDS_READ_SEC_XZ: opening global file: OBN_POFe_76x72x24_baltic_128.bin
(PID.TID 0000.0001)  MDS_READ_SEC_XZ: opening global file: OBN_POSi_76x72x24_baltic_128.bin
(PID.TID 0000.0001)  MDS_READ_SEC_XZ: opening global file: OBN_POSi_76x72x24_baltic_128.bin
(PID.TID 0000.0001)  MDS_READ_SEC_XZ: opening global file: OBN_NH4_76x72x24_baltic_128.bin
(PID.TID 0000.0001)  MDS_READ_SEC_XZ: opening global file: OBN_NH4_76x72x24_baltic_128.bin
(PID.TID 0000.0001)  MDS_READ_SEC_XZ: opening global file: OBN_NO2_76x72x24_baltic_128.bin
(PID.TID 0000.0001)  MDS_READ_SEC_XZ: opening global file: OBN_NO2_76x72x24_baltic_128.bin
(PID.TID 0000.0001)  MDS_READ_SEC_XZ: opening global file: OBN_Phy01_76x72x24_baltic_128.bin
(PID.TID 0000.0001)  MDS_READ_SEC_XZ: opening global file: OBN_Phy01_76x72x24_baltic_128.bin
(PID.TID 0000.0001)  MDS_READ_SEC_XZ: opening global file: OBN_Phy02_76x72x24_baltic_128.bin
(PID.TID 0000.0001)  MDS_READ_SEC_XZ: opening global file: OBN_Phy02_76x72x24_baltic_128.bin
(PID.TID 0000.0001)  MDS_READ_SEC_XZ: opening global file: OBN_Phy03_76x72x24_baltic_128.bin
(PID.TID 0000.0001)  MDS_READ_SEC_XZ: opening global file: OBN_Phy03_76x72x24_baltic_128.bin
(PID.TID 0000.0001)  MDS_READ_SEC_XZ: opening global file: OBN_Phy04_76x72x24_baltic_128.bin
(PID.TID 0000.0001)  MDS_READ_SEC_XZ: opening global file: OBN_Phy04_76x72x24_baltic_128.bin
(PID.TID 0000.0001)  MDS_READ_SEC_XZ: opening global file: OBN_Phy05_76x72x24_baltic_128.bin
(PID.TID 0000.0001)  MDS_READ_SEC_XZ: opening global file: OBN_Phy05_76x72x24_baltic_128.bin
(PID.TID 0000.0001)  MDS_READ_SEC_XZ: opening global file: OBN_Phy06_76x72x24_baltic_128.bin
(PID.TID 0000.0001)  MDS_READ_SEC_XZ: opening global file: OBN_Phy06_76x72x24_baltic_128.bin
(PID.TID 0000.0001)  MDS_READ_SEC_XZ: opening global file: OBN_Phy07_76x72x24_baltic_128.bin
(PID.TID 0000.0001)  MDS_READ_SEC_XZ: opening global file: OBN_Phy07_76x72x24_baltic_128.bin
(PID.TID 0000.0001)  MDS_READ_SEC_XZ: opening global file: OBN_Phy08_76x72x24_baltic_128.bin
(PID.TID 0000.0001)  MDS_READ_SEC_XZ: opening global file: OBN_Phy08_76x72x24_baltic_128.bin
(PID.TID 0000.0001)  MDS_READ_SEC_XZ: opening global file: OBN_Phy09_76x72x24_baltic_128.bin
(PID.TID 0000.0001)  MDS_READ_SEC_XZ: opening global file: OBN_Phy09_76x72x24_baltic_128.bin
(PID.TID 0000.0001)  MDS_READ_SEC_XZ: opening global file: OBN_Phy10_76x72x24_baltic_128.bin
(PID.TID 0000.0001)  MDS_READ_SEC_XZ: opening global file: OBN_Phy10_76x72x24_baltic_128.bin
(PID.TID 0000.0001)  MDS_READ_SEC_XZ: opening global file: OBN_Phy11_76x72x24_baltic_128.bin
(PID.TID 0000.0001)  MDS_READ_SEC_XZ: opening global file: OBN_Phy11_76x72x24_baltic_128.bin
(PID.TID 0000.0001)  MDS_READ_SEC_XZ: opening global file: OBN_Phy12_76x72x24_baltic_128.bin
(PID.TID 0000.0001)  MDS_READ_SEC_XZ: opening global file: OBN_Phy12_76x72x24_baltic_128.bin
(PID.TID 0000.0001)  MDS_READ_SEC_XZ: opening global file: OBN_Phy13_76x72x24_baltic_128.bin
(PID.TID 0000.0001)  MDS_READ_SEC_XZ: opening global file: OBN_Phy13_76x72x24_baltic_128.bin
(PID.TID 0000.0001)  MDS_READ_SEC_XZ: opening global file: OBN_Phy14_76x72x24_baltic_128.bin
(PID.TID 0000.0001)  MDS_READ_SEC_XZ: opening global file: OBN_Phy14_76x72x24_baltic_128.bin
(PID.TID 0000.0001)  MDS_READ_SEC_XZ: opening global file: OBN_Phy15_76x72x24_baltic_128.bin
(PID.TID 0000.0001)  MDS_READ_SEC_XZ: opening global file: OBN_Phy15_76x72x24_baltic_128.bin
(PID.TID 0000.0001)  MDS_READ_SEC_XZ: opening global file: OBN_Phy16_76x72x24_baltic_128.bin
(PID.TID 0000.0001)  MDS_READ_SEC_XZ: opening global file: OBN_Phy16_76x72x24_baltic_128.bin
(PID.TID 0000.0001)  MDS_READ_SEC_XZ: opening global file: OBN_Phy17_76x72x24_baltic_128.bin
(PID.TID 0000.0001)  MDS_READ_SEC_XZ: opening global file: OBN_Phy17_76x72x24_baltic_128.bin
(PID.TID 0000.0001)  MDS_READ_SEC_XZ: opening global file: OBN_Phy18_76x72x24_baltic_128.bin
(PID.TID 0000.0001)  MDS_READ_SEC_XZ: opening global file: OBN_Phy18_76x72x24_baltic_128.bin
(PID.TID 0000.0001)  MDS_READ_SEC_XZ: opening global file: OBN_Phy19_76x72x24_baltic_128.bin
(PID.TID 0000.0001)  MDS_READ_SEC_XZ: opening global file: OBN_Phy19_76x72x24_baltic_128.bin
(PID.TID 0000.0001)  MDS_READ_SEC_XZ: opening global file: OBN_Phy20_76x72x24_baltic_128.bin
(PID.TID 0000.0001)  MDS_READ_SEC_XZ: opening global file: OBN_Phy20_76x72x24_baltic_128.bin
(PID.TID 0000.0001)  MDS_READ_SEC_XZ: opening global file: OBN_Phy21_76x72x24_baltic_128.bin
(PID.TID 0000.0001)  MDS_READ_SEC_XZ: opening global file: OBN_Phy21_76x72x24_baltic_128.bin
(PID.TID 0000.0001)  MDS_READ_SEC_XZ: opening global file: OBN_Phy22_76x72x24_baltic_128.bin
(PID.TID 0000.0001)  MDS_READ_SEC_XZ: opening global file: OBN_Phy22_76x72x24_baltic_128.bin
(PID.TID 0000.0001)  MDS_READ_SEC_XZ: opening global file: OBN_Phy23_76x72x24_baltic_128.bin
(PID.TID 0000.0001)  MDS_READ_SEC_XZ: opening global file: OBN_Phy23_76x72x24_baltic_128.bin
(PID.TID 0000.0001)  MDS_READ_SEC_XZ: opening global file: OBN_Phy24_76x72x24_baltic_128.bin
(PID.TID 0000.0001)  MDS_READ_SEC_XZ: opening global file: OBN_Phy24_76x72x24_baltic_128.bin
(PID.TID 0000.0001)  MDS_READ_SEC_XZ: opening global file: OBN_Phy25_76x72x24_baltic_128.bin
(PID.TID 0000.0001)  MDS_READ_SEC_XZ: opening global file: OBN_Phy25_76x72x24_baltic_128.bin
(PID.TID 0000.0001)  MDS_READ_SEC_XZ: opening global file: OBN_Phy26_76x72x24_baltic_128.bin
(PID.TID 0000.0001)  MDS_READ_SEC_XZ: opening global file: OBN_Phy26_76x72x24_baltic_128.bin
(PID.TID 0000.0001)  MDS_READ_SEC_XZ: opening global file: OBN_Phy27_76x72x24_baltic_128.bin
(PID.TID 0000.0001)  MDS_READ_SEC_XZ: opening global file: OBN_Phy27_76x72x24_baltic_128.bin
(PID.TID 0000.0001)  MDS_READ_SEC_XZ: opening global file: OBN_Phy28_76x72x24_baltic_128.bin
(PID.TID 0000.0001)  MDS_READ_SEC_XZ: opening global file: OBN_Phy28_76x72x24_baltic_128.bin
(PID.TID 0000.0001)  MDS_READ_SEC_XZ: opening global file: OBN_Phy29_76x72x24_baltic_128.bin
(PID.TID 0000.0001)  MDS_READ_SEC_XZ: opening global file: OBN_Phy29_76x72x24_baltic_128.bin
(PID.TID 0000.0001)  MDS_READ_SEC_XZ: opening global file: OBN_Phy30_76x72x24_baltic_128.bin
(PID.TID 0000.0001)  MDS_READ_SEC_XZ: opening global file: OBN_Phy30_76x72x24_baltic_128.bin
(PID.TID 0000.0001)  MDS_READ_SEC_XZ: opening global file: OBN_Phy31_76x72x24_baltic_128.bin
(PID.TID 0000.0001)  MDS_READ_SEC_XZ: opening global file: OBN_Phy31_76x72x24_baltic_128.bin
(PID.TID 0000.0001)  MDS_READ_SEC_XZ: opening global file: OBN_Phy32_76x72x24_baltic_128.bin
(PID.TID 0000.0001)  MDS_READ_SEC_XZ: opening global file: OBN_Phy32_76x72x24_baltic_128.bin
(PID.TID 0000.0001)  MDS_READ_SEC_XZ: opening global file: OBN_Phy33_76x72x24_baltic_128.bin
(PID.TID 0000.0001)  MDS_READ_SEC_XZ: opening global file: OBN_Phy33_76x72x24_baltic_128.bin
(PID.TID 0000.0001)  MDS_READ_SEC_XZ: opening global file: OBN_Phy34_76x72x24_baltic_128.bin
(PID.TID 0000.0001)  MDS_READ_SEC_XZ: opening global file: OBN_Phy34_76x72x24_baltic_128.bin
(PID.TID 0000.0001)  MDS_READ_SEC_XZ: opening global file: OBN_Phy35_76x72x24_baltic_128.bin
(PID.TID 0000.0001)  MDS_READ_SEC_XZ: opening global file: OBN_Phy35_76x72x24_baltic_128.bin
(PID.TID 0000.0001)  MDS_READ_SEC_XZ: opening global file: OBN_Phy36_76x72x24_baltic_128.bin
(PID.TID 0000.0001)  MDS_READ_SEC_XZ: opening global file: OBN_Phy36_76x72x24_baltic_128.bin
(PID.TID 0000.0001)  MDS_READ_SEC_XZ: opening global file: OBN_Phy37_76x72x24_baltic_128.bin
(PID.TID 0000.0001)  MDS_READ_SEC_XZ: opening global file: OBN_Phy37_76x72x24_baltic_128.bin
(PID.TID 0000.0001)  MDS_READ_SEC_XZ: opening global file: OBN_Phy38_76x72x24_baltic_128.bin
(PID.TID 0000.0001)  MDS_READ_SEC_XZ: opening global file: OBN_Phy38_76x72x24_baltic_128.bin
(PID.TID 0000.0001)  MDS_READ_SEC_XZ: opening global file: OBN_Phy39_76x72x24_baltic_128.bin
(PID.TID 0000.0001)  MDS_READ_SEC_XZ: opening global file: OBN_Phy39_76x72x24_baltic_128.bin
(PID.TID 0000.0001)  MDS_READ_SEC_XZ: opening global file: OBN_Phy40_76x72x24_baltic_128.bin
(PID.TID 0000.0001)  MDS_READ_SEC_XZ: opening global file: OBN_Phy40_76x72x24_baltic_128.bin
(PID.TID 0000.0001)  MDS_READ_SEC_XZ: opening global file: OBN_Phy41_76x72x24_baltic_128.bin
(PID.TID 0000.0001)  MDS_READ_SEC_XZ: opening global file: OBN_Phy41_76x72x24_baltic_128.bin
(PID.TID 0000.0001)  MDS_READ_SEC_XZ: opening global file: OBN_Phy42_76x72x24_baltic_128.bin
(PID.TID 0000.0001)  MDS_READ_SEC_XZ: opening global file: OBN_Phy42_76x72x24_baltic_128.bin
(PID.TID 0000.0001)  MDS_READ_SEC_XZ: opening global file: OBN_Phy43_76x72x24_baltic_128.bin
(PID.TID 0000.0001)  MDS_READ_SEC_XZ: opening global file: OBN_Phy43_76x72x24_baltic_128.bin
(PID.TID 0000.0001)  MDS_READ_SEC_XZ: opening global file: OBN_Phy44_76x72x24_baltic_128.bin
(PID.TID 0000.0001)  MDS_READ_SEC_XZ: opening global file: OBN_Phy44_76x72x24_baltic_128.bin
(PID.TID 0000.0001)  MDS_READ_SEC_XZ: opening global file: OBN_Phy45_76x72x24_baltic_128.bin
(PID.TID 0000.0001)  MDS_READ_SEC_XZ: opening global file: OBN_Phy45_76x72x24_baltic_128.bin
(PID.TID 0000.0001)  MDS_READ_SEC_XZ: opening global file: OBN_Phy46_76x72x24_baltic_128.bin
(PID.TID 0000.0001)  MDS_READ_SEC_XZ: opening global file: OBN_Phy46_76x72x24_baltic_128.bin
(PID.TID 0000.0001)  MDS_READ_SEC_XZ: opening global file: OBN_Phy47_76x72x24_baltic_128.bin
(PID.TID 0000.0001)  MDS_READ_SEC_XZ: opening global file: OBN_Phy47_76x72x24_baltic_128.bin
(PID.TID 0000.0001)  MDS_READ_SEC_XZ: opening global file: OBN_Phy48_76x72x24_baltic_128.bin
(PID.TID 0000.0001)  MDS_READ_SEC_XZ: opening global file: OBN_Phy48_76x72x24_baltic_128.bin
(PID.TID 0000.0001)  MDS_READ_SEC_XZ: opening global file: OBN_Phy49_76x72x24_baltic_128.bin
(PID.TID 0000.0001)  MDS_READ_SEC_XZ: opening global file: OBN_Phy49_76x72x24_baltic_128.bin
(PID.TID 0000.0001)  MDS_READ_SEC_XZ: opening global file: OBN_Phy50_76x72x24_baltic_128.bin
(PID.TID 0000.0001)  MDS_READ_SEC_XZ: opening global file: OBN_Phy50_76x72x24_baltic_128.bin
(PID.TID 0000.0001)  MDS_READ_SEC_XZ: opening global file: OBN_Phy51_76x72x24_baltic_128.bin
(PID.TID 0000.0001)  MDS_READ_SEC_XZ: opening global file: OBN_Phy51_76x72x24_baltic_128.bin
(PID.TID 0000.0001)  MDS_READ_SEC_XZ: opening global file: OBN_Phy52_76x72x24_baltic_128.bin
(PID.TID 0000.0001)  MDS_READ_SEC_XZ: opening global file: OBN_Phy52_76x72x24_baltic_128.bin
(PID.TID 0000.0001)  MDS_READ_SEC_XZ: opening global file: OBN_Phy53_76x72x24_baltic_128.bin
(PID.TID 0000.0001)  MDS_READ_SEC_XZ: opening global file: OBN_Phy53_76x72x24_baltic_128.bin
(PID.TID 0000.0001)  MDS_READ_SEC_XZ: opening global file: OBN_Phy54_76x72x24_baltic_128.bin
(PID.TID 0000.0001)  MDS_READ_SEC_XZ: opening global file: OBN_Phy54_76x72x24_baltic_128.bin
(PID.TID 0000.0001)  MDS_READ_SEC_XZ: opening global file: OBN_Phy55_76x72x24_baltic_128.bin
(PID.TID 0000.0001)  MDS_READ_SEC_XZ: opening global file: OBN_Phy55_76x72x24_baltic_128.bin
(PID.TID 0000.0001)  MDS_READ_SEC_XZ: opening global file: OBN_Phy56_76x72x24_baltic_128.bin
(PID.TID 0000.0001)  MDS_READ_SEC_XZ: opening global file: OBN_Phy56_76x72x24_baltic_128.bin
(PID.TID 0000.0001)  MDS_READ_SEC_XZ: opening global file: OBN_Phy57_76x72x24_baltic_128.bin
(PID.TID 0000.0001)  MDS_READ_SEC_XZ: opening global file: OBN_Phy57_76x72x24_baltic_128.bin
(PID.TID 0000.0001)  MDS_READ_SEC_XZ: opening global file: OBN_Phy58_76x72x24_baltic_128.bin
(PID.TID 0000.0001)  MDS_READ_SEC_XZ: opening global file: OBN_Phy58_76x72x24_baltic_128.bin
(PID.TID 0000.0001)  MDS_READ_SEC_XZ: opening global file: OBN_Phy59_76x72x24_baltic_128.bin
(PID.TID 0000.0001)  MDS_READ_SEC_XZ: opening global file: OBN_Phy59_76x72x24_baltic_128.bin
(PID.TID 0000.0001)  MDS_READ_SEC_XZ: opening global file: OBN_Phy60_76x72x24_baltic_128.bin
(PID.TID 0000.0001)  MDS_READ_SEC_XZ: opening global file: OBN_Phy60_76x72x24_baltic_128.bin
(PID.TID 0000.0001)  MDS_READ_SEC_XZ: opening global file: OBN_Phy61_76x72x24_baltic_128.bin
(PID.TID 0000.0001)  MDS_READ_SEC_XZ: opening global file: OBN_Phy61_76x72x24_baltic_128.bin
(PID.TID 0000.0001)  MDS_READ_SEC_XZ: opening global file: OBN_Phy62_76x72x24_baltic_128.bin
(PID.TID 0000.0001)  MDS_READ_SEC_XZ: opening global file: OBN_Phy62_76x72x24_baltic_128.bin
(PID.TID 0000.0001)  MDS_READ_SEC_XZ: opening global file: OBN_Phy63_76x72x24_baltic_128.bin
(PID.TID 0000.0001)  MDS_READ_SEC_XZ: opening global file: OBN_Phy63_76x72x24_baltic_128.bin
(PID.TID 0000.0001)  MDS_READ_SEC_XZ: opening global file: OBN_Phy64_76x72x24_baltic_128.bin
(PID.TID 0000.0001)  MDS_READ_SEC_XZ: opening global file: OBN_Phy64_76x72x24_baltic_128.bin
(PID.TID 0000.0001)  MDS_READ_SEC_XZ: opening global file: OBN_Phy65_76x72x24_baltic_128.bin
(PID.TID 0000.0001)  MDS_READ_SEC_XZ: opening global file: OBN_Phy65_76x72x24_baltic_128.bin
(PID.TID 0000.0001)  MDS_READ_SEC_XZ: opening global file: OBN_Phy66_76x72x24_baltic_128.bin
(PID.TID 0000.0001)  MDS_READ_SEC_XZ: opening global file: OBN_Phy66_76x72x24_baltic_128.bin
(PID.TID 0000.0001)  MDS_READ_SEC_XZ: opening global file: OBN_Phy67_76x72x24_baltic_128.bin
(PID.TID 0000.0001)  MDS_READ_SEC_XZ: opening global file: OBN_Phy67_76x72x24_baltic_128.bin
(PID.TID 0000.0001)  MDS_READ_SEC_XZ: opening global file: OBN_Phy68_76x72x24_baltic_128.bin
(PID.TID 0000.0001)  MDS_READ_SEC_XZ: opening global file: OBN_Phy68_76x72x24_baltic_128.bin
(PID.TID 0000.0001)  MDS_READ_SEC_XZ: opening global file: OBN_Phy69_76x72x24_baltic_128.bin
(PID.TID 0000.0001)  MDS_READ_SEC_XZ: opening global file: OBN_Phy69_76x72x24_baltic_128.bin
(PID.TID 0000.0001)  MDS_READ_SEC_XZ: opening global file: OBN_Phy70_76x72x24_baltic_128.bin
(PID.TID 0000.0001)  MDS_READ_SEC_XZ: opening global file: OBN_Phy70_76x72x24_baltic_128.bin
(PID.TID 0000.0001)  MDS_READ_SEC_XZ: opening global file: OBN_Phy71_76x72x24_baltic_128.bin
(PID.TID 0000.0001)  MDS_READ_SEC_XZ: opening global file: OBN_Phy71_76x72x24_baltic_128.bin
(PID.TID 0000.0001)  MDS_READ_SEC_XZ: opening global file: OBN_Phy72_76x72x24_baltic_128.bin
(PID.TID 0000.0001)  MDS_READ_SEC_XZ: opening global file: OBN_Phy72_76x72x24_baltic_128.bin
(PID.TID 0000.0001)  MDS_READ_SEC_XZ: opening global file: OBN_Phy73_76x72x24_baltic_128.bin
(PID.TID 0000.0001)  MDS_READ_SEC_XZ: opening global file: OBN_Phy73_76x72x24_baltic_128.bin
(PID.TID 0000.0001)  MDS_READ_SEC_XZ: opening global file: OBN_Phy74_76x72x24_baltic_128.bin
(PID.TID 0000.0001)  MDS_READ_SEC_XZ: opening global file: OBN_Phy74_76x72x24_baltic_128.bin
(PID.TID 0000.0001)  MDS_READ_SEC_XZ: opening global file: OBN_Phy75_76x72x24_baltic_128.bin
(PID.TID 0000.0001)  MDS_READ_SEC_XZ: opening global file: OBN_Phy75_76x72x24_baltic_128.bin
(PID.TID 0000.0001)  MDS_READ_SEC_XZ: opening global file: OBN_Phy76_76x72x24_baltic_128.bin
(PID.TID 0000.0001)  MDS_READ_SEC_XZ: opening global file: OBN_Phy76_76x72x24_baltic_128.bin
(PID.TID 0000.0001)  MDS_READ_SEC_XZ: opening global file: OBN_Phy77_76x72x24_baltic_128.bin
(PID.TID 0000.0001)  MDS_READ_SEC_XZ: opening global file: OBN_Phy77_76x72x24_baltic_128.bin
(PID.TID 0000.0001)  MDS_READ_SEC_XZ: opening global file: OBN_Phy78_76x72x24_baltic_128.bin
(PID.TID 0000.0001)  MDS_READ_SEC_XZ: opening global file: OBN_Phy78_76x72x24_baltic_128.bin
(PID.TID 0000.0001)  MDS_READ_SEC_YZ: opening global file: OBWu_baltic_76x72.bin
(PID.TID 0000.0001)  MDS_READ_SEC_YZ: opening global file: OBWu_baltic_76x72.bin
(PID.TID 0000.0001)  MDS_READ_SEC_YZ: opening global file: OBWv_baltic_76x72.bin
(PID.TID 0000.0001)  MDS_READ_SEC_YZ: opening global file: OBWv_baltic_76x72.bin
(PID.TID 0000.0001)  MDS_READ_SEC_YZ: opening global file: OBWt_baltic_76x72.stable
(PID.TID 0000.0001)  MDS_READ_SEC_YZ: opening global file: OBWt_baltic_76x72.stable
(PID.TID 0000.0001)  MDS_READ_SEC_YZ: opening global file: OBWs_baltic_76x72.stable
(PID.TID 0000.0001)  MDS_READ_SEC_YZ: opening global file: OBWs_baltic_76x72.stable
(PID.TID 0000.0001)  MDS_READ_SEC_YZ: opening global file: OBW_PO4_76x72x24_baltic_128.bin
(PID.TID 0000.0001)  MDS_READ_SEC_YZ: opening global file: OBW_PO4_76x72x24_baltic_128.bin
(PID.TID 0000.0001)  MDS_READ_SEC_YZ: opening global file: OBW_NO3_76x72x24_baltic_128.bin
(PID.TID 0000.0001)  MDS_READ_SEC_YZ: opening global file: OBW_NO3_76x72x24_baltic_128.bin
(PID.TID 0000.0001)  MDS_READ_SEC_YZ: opening global file: OBW_FeT_76x72x24_baltic_128.bin
(PID.TID 0000.0001)  MDS_READ_SEC_YZ: opening global file: OBW_FeT_76x72x24_baltic_128.bin
(PID.TID 0000.0001)  MDS_READ_SEC_YZ: opening global file: OBW_SiO2_76x72x24_baltic_128.bin
(PID.TID 0000.0001)  MDS_READ_SEC_YZ: opening global file: OBW_SiO2_76x72x24_baltic_128.bin
(PID.TID 0000.0001)  MDS_READ_SEC_YZ: opening global file: OBW_DOP_76x72x24_baltic_128.bin
(PID.TID 0000.0001)  MDS_READ_SEC_YZ: opening global file: OBW_DOP_76x72x24_baltic_128.bin
(PID.TID 0000.0001)  MDS_READ_SEC_YZ: opening global file: OBW_DON_76x72x24_baltic_128.bin
(PID.TID 0000.0001)  MDS_READ_SEC_YZ: opening global file: OBW_DON_76x72x24_baltic_128.bin
(PID.TID 0000.0001)  MDS_READ_SEC_YZ: opening global file: OBW_DOFe_76x72x24_baltic_128.bin
(PID.TID 0000.0001)  MDS_READ_SEC_YZ: opening global file: OBW_DOFe_76x72x24_baltic_128.bin
(PID.TID 0000.0001)  MDS_READ_SEC_YZ: opening global file: OBW_ZOO1P_76x72x24_baltic_128.bin
(PID.TID 0000.0001)  MDS_READ_SEC_YZ: opening global file: OBW_ZOO1P_76x72x24_baltic_128.bin
(PID.TID 0000.0001)  MDS_READ_SEC_YZ: opening global file: OBW_ZOO1N_76x72x24_baltic_128.bin
(PID.TID 0000.0001)  MDS_READ_SEC_YZ: opening global file: OBW_ZOO1N_76x72x24_baltic_128.bin
(PID.TID 0000.0001)  MDS_READ_SEC_YZ: opening global file: OBW_ZOO1Fe_76x72x24_baltic_128.bin
(PID.TID 0000.0001)  MDS_READ_SEC_YZ: opening global file: OBW_ZOO1Fe_76x72x24_baltic_128.bin
(PID.TID 0000.0001)  MDS_READ_SEC_YZ: opening global file: OBW_ZOO1Si_76x72x24_baltic_128.bin
(PID.TID 0000.0001)  MDS_READ_SEC_YZ: opening global file: OBW_ZOO1Si_76x72x24_baltic_128.bin
(PID.TID 0000.0001)  MDS_READ_SEC_YZ: opening global file: OBW_ZOO2P_76x72x24_baltic_128.bin
(PID.TID 0000.0001)  MDS_READ_SEC_YZ: opening global file: OBW_ZOO2P_76x72x24_baltic_128.bin
(PID.TID 0000.0001)  MDS_READ_SEC_YZ: opening global file: OBW_ZOO2N_76x72x24_baltic_128.bin
(PID.TID 0000.0001)  MDS_READ_SEC_YZ: opening global file: OBW_ZOO2N_76x72x24_baltic_128.bin
(PID.TID 0000.0001)  MDS_READ_SEC_YZ: opening global file: OBW_ZOO2Fe_76x72x24_baltic_128.bin
(PID.TID 0000.0001)  MDS_READ_SEC_YZ: opening global file: OBW_ZOO2Fe_76x72x24_baltic_128.bin
(PID.TID 0000.0001)  MDS_READ_SEC_YZ: opening global file: OBW_ZOO2Si_76x72x24_baltic_128.bin
(PID.TID 0000.0001)  MDS_READ_SEC_YZ: opening global file: OBW_ZOO2Si_76x72x24_baltic_128.bin
(PID.TID 0000.0001)  MDS_READ_SEC_YZ: opening global file: OBW_POP_76x72x24_baltic_128.bin
(PID.TID 0000.0001)  MDS_READ_SEC_YZ: opening global file: OBW_POP_76x72x24_baltic_128.bin
(PID.TID 0000.0001)  MDS_READ_SEC_YZ: opening global file: OBW_PON_76x72x24_baltic_128.bin
(PID.TID 0000.0001)  MDS_READ_SEC_YZ: opening global file: OBW_PON_76x72x24_baltic_128.bin
(PID.TID 0000.0001)  MDS_READ_SEC_YZ: opening global file: OBW_POFe_76x72x24_baltic_128.bin
(PID.TID 0000.0001)  MDS_READ_SEC_YZ: opening global file: OBW_POFe_76x72x24_baltic_128.bin
(PID.TID 0000.0001)  MDS_READ_SEC_YZ: opening global file: OBW_POSi_76x72x24_baltic_128.bin
(PID.TID 0000.0001)  MDS_READ_SEC_YZ: opening global file: OBW_POSi_76x72x24_baltic_128.bin
(PID.TID 0000.0001)  MDS_READ_SEC_YZ: opening global file: OBW_NH4_76x72x24_baltic_128.bin
(PID.TID 0000.0001)  MDS_READ_SEC_YZ: opening global file: OBW_NH4_76x72x24_baltic_128.bin
(PID.TID 0000.0001)  MDS_READ_SEC_YZ: opening global file: OBW_NO2_76x72x24_baltic_128.bin
(PID.TID 0000.0001)  MDS_READ_SEC_YZ: opening global file: OBW_NO2_76x72x24_baltic_128.bin
(PID.TID 0000.0001)  MDS_READ_SEC_YZ: opening global file: OBW_Phy01_76x72x24_baltic_128.bin
(PID.TID 0000.0001)  MDS_READ_SEC_YZ: opening global file: OBW_Phy01_76x72x24_baltic_128.bin
(PID.TID 0000.0001)  MDS_READ_SEC_YZ: opening global file: OBW_Phy02_76x72x24_baltic_128.bin
(PID.TID 0000.0001)  MDS_READ_SEC_YZ: opening global file: OBW_Phy02_76x72x24_baltic_128.bin
(PID.TID 0000.0001)  MDS_READ_SEC_YZ: opening global file: OBW_Phy03_76x72x24_baltic_128.bin
(PID.TID 0000.0001)  MDS_READ_SEC_YZ: opening global file: OBW_Phy03_76x72x24_baltic_128.bin
(PID.TID 0000.0001)  MDS_READ_SEC_YZ: opening global file: OBW_Phy04_76x72x24_baltic_128.bin
(PID.TID 0000.0001)  MDS_READ_SEC_YZ: opening global file: OBW_Phy04_76x72x24_baltic_128.bin
(PID.TID 0000.0001)  MDS_READ_SEC_YZ: opening global file: OBW_Phy05_76x72x24_baltic_128.bin
(PID.TID 0000.0001)  MDS_READ_SEC_YZ: opening global file: OBW_Phy05_76x72x24_baltic_128.bin
(PID.TID 0000.0001)  MDS_READ_SEC_YZ: opening global file: OBW_Phy06_76x72x24_baltic_128.bin
(PID.TID 0000.0001)  MDS_READ_SEC_YZ: opening global file: OBW_Phy06_76x72x24_baltic_128.bin
(PID.TID 0000.0001)  MDS_READ_SEC_YZ: opening global file: OBW_Phy07_76x72x24_baltic_128.bin
(PID.TID 0000.0001)  MDS_READ_SEC_YZ: opening global file: OBW_Phy07_76x72x24_baltic_128.bin
(PID.TID 0000.0001)  MDS_READ_SEC_YZ: opening global file: OBW_Phy08_76x72x24_baltic_128.bin
(PID.TID 0000.0001)  MDS_READ_SEC_YZ: opening global file: OBW_Phy08_76x72x24_baltic_128.bin
(PID.TID 0000.0001)  MDS_READ_SEC_YZ: opening global file: OBW_Phy09_76x72x24_baltic_128.bin
(PID.TID 0000.0001)  MDS_READ_SEC_YZ: opening global file: OBW_Phy09_76x72x24_baltic_128.bin
(PID.TID 0000.0001)  MDS_READ_SEC_YZ: opening global file: OBW_Phy10_76x72x24_baltic_128.bin
(PID.TID 0000.0001)  MDS_READ_SEC_YZ: opening global file: OBW_Phy10_76x72x24_baltic_128.bin
(PID.TID 0000.0001)  MDS_READ_SEC_YZ: opening global file: OBW_Phy11_76x72x24_baltic_128.bin
(PID.TID 0000.0001)  MDS_READ_SEC_YZ: opening global file: OBW_Phy11_76x72x24_baltic_128.bin
(PID.TID 0000.0001)  MDS_READ_SEC_YZ: opening global file: OBW_Phy12_76x72x24_baltic_128.bin
(PID.TID 0000.0001)  MDS_READ_SEC_YZ: opening global file: OBW_Phy12_76x72x24_baltic_128.bin
(PID.TID 0000.0001)  MDS_READ_SEC_YZ: opening global file: OBW_Phy13_76x72x24_baltic_128.bin
(PID.TID 0000.0001)  MDS_READ_SEC_YZ: opening global file: OBW_Phy13_76x72x24_baltic_128.bin
(PID.TID 0000.0001)  MDS_READ_SEC_YZ: opening global file: OBW_Phy14_76x72x24_baltic_128.bin
(PID.TID 0000.0001)  MDS_READ_SEC_YZ: opening global file: OBW_Phy14_76x72x24_baltic_128.bin
(PID.TID 0000.0001)  MDS_READ_SEC_YZ: opening global file: OBW_Phy15_76x72x24_baltic_128.bin
(PID.TID 0000.0001)  MDS_READ_SEC_YZ: opening global file: OBW_Phy15_76x72x24_baltic_128.bin
(PID.TID 0000.0001)  MDS_READ_SEC_YZ: opening global file: OBW_Phy16_76x72x24_baltic_128.bin
(PID.TID 0000.0001)  MDS_READ_SEC_YZ: opening global file: OBW_Phy16_76x72x24_baltic_128.bin
(PID.TID 0000.0001)  MDS_READ_SEC_YZ: opening global file: OBW_Phy17_76x72x24_baltic_128.bin
(PID.TID 0000.0001)  MDS_READ_SEC_YZ: opening global file: OBW_Phy17_76x72x24_baltic_128.bin
(PID.TID 0000.0001)  MDS_READ_SEC_YZ: opening global file: OBW_Phy18_76x72x24_baltic_128.bin
(PID.TID 0000.0001)  MDS_READ_SEC_YZ: opening global file: OBW_Phy18_76x72x24_baltic_128.bin
(PID.TID 0000.0001)  MDS_READ_SEC_YZ: opening global file: OBW_Phy19_76x72x24_baltic_128.bin
(PID.TID 0000.0001)  MDS_READ_SEC_YZ: opening global file: OBW_Phy19_76x72x24_baltic_128.bin
(PID.TID 0000.0001)  MDS_READ_SEC_YZ: opening global file: OBW_Phy20_76x72x24_baltic_128.bin
(PID.TID 0000.0001)  MDS_READ_SEC_YZ: opening global file: OBW_Phy20_76x72x24_baltic_128.bin
(PID.TID 0000.0001)  MDS_READ_SEC_YZ: opening global file: OBW_Phy21_76x72x24_baltic_128.bin
(PID.TID 0000.0001)  MDS_READ_SEC_YZ: opening global file: OBW_Phy21_76x72x24_baltic_128.bin
(PID.TID 0000.0001)  MDS_READ_SEC_YZ: opening global file: OBW_Phy22_76x72x24_baltic_128.bin
(PID.TID 0000.0001)  MDS_READ_SEC_YZ: opening global file: OBW_Phy22_76x72x24_baltic_128.bin
(PID.TID 0000.0001)  MDS_READ_SEC_YZ: opening global file: OBW_Phy23_76x72x24_baltic_128.bin
(PID.TID 0000.0001)  MDS_READ_SEC_YZ: opening global file: OBW_Phy23_76x72x24_baltic_128.bin
(PID.TID 0000.0001)  MDS_READ_SEC_YZ: opening global file: OBW_Phy24_76x72x24_baltic_128.bin
(PID.TID 0000.0001)  MDS_READ_SEC_YZ: opening global file: OBW_Phy24_76x72x24_baltic_128.bin
(PID.TID 0000.0001)  MDS_READ_SEC_YZ: opening global file: OBW_Phy25_76x72x24_baltic_128.bin
(PID.TID 0000.0001)  MDS_READ_SEC_YZ: opening global file: OBW_Phy25_76x72x24_baltic_128.bin
(PID.TID 0000.0001)  MDS_READ_SEC_YZ: opening global file: OBW_Phy26_76x72x24_baltic_128.bin
(PID.TID 0000.0001)  MDS_READ_SEC_YZ: opening global file: OBW_Phy26_76x72x24_baltic_128.bin
(PID.TID 0000.0001)  MDS_READ_SEC_YZ: opening global file: OBW_Phy27_76x72x24_baltic_128.bin
(PID.TID 0000.0001)  MDS_READ_SEC_YZ: opening global file: OBW_Phy27_76x72x24_baltic_128.bin
(PID.TID 0000.0001)  MDS_READ_SEC_YZ: opening global file: OBW_Phy28_76x72x24_baltic_128.bin
(PID.TID 0000.0001)  MDS_READ_SEC_YZ: opening global file: OBW_Phy28_76x72x24_baltic_128.bin
(PID.TID 0000.0001)  MDS_READ_SEC_YZ: opening global file: OBW_Phy29_76x72x24_baltic_128.bin
(PID.TID 0000.0001)  MDS_READ_SEC_YZ: opening global file: OBW_Phy29_76x72x24_baltic_128.bin
(PID.TID 0000.0001)  MDS_READ_SEC_YZ: opening global file: OBW_Phy30_76x72x24_baltic_128.bin
(PID.TID 0000.0001)  MDS_READ_SEC_YZ: opening global file: OBW_Phy30_76x72x24_baltic_128.bin
(PID.TID 0000.0001)  MDS_READ_SEC_YZ: opening global file: OBW_Phy31_76x72x24_baltic_128.bin
(PID.TID 0000.0001)  MDS_READ_SEC_YZ: opening global file: OBW_Phy31_76x72x24_baltic_128.bin
(PID.TID 0000.0001)  MDS_READ_SEC_YZ: opening global file: OBW_Phy32_76x72x24_baltic_128.bin
(PID.TID 0000.0001)  MDS_READ_SEC_YZ: opening global file: OBW_Phy32_76x72x24_baltic_128.bin
(PID.TID 0000.0001)  MDS_READ_SEC_YZ: opening global file: OBW_Phy33_76x72x24_baltic_128.bin
(PID.TID 0000.0001)  MDS_READ_SEC_YZ: opening global file: OBW_Phy33_76x72x24_baltic_128.bin
(PID.TID 0000.0001)  MDS_READ_SEC_YZ: opening global file: OBW_Phy34_76x72x24_baltic_128.bin
(PID.TID 0000.0001)  MDS_READ_SEC_YZ: opening global file: OBW_Phy34_76x72x24_baltic_128.bin
(PID.TID 0000.0001)  MDS_READ_SEC_YZ: opening global file: OBW_Phy35_76x72x24_baltic_128.bin
(PID.TID 0000.0001)  MDS_READ_SEC_YZ: opening global file: OBW_Phy35_76x72x24_baltic_128.bin
(PID.TID 0000.0001)  MDS_READ_SEC_YZ: opening global file: OBW_Phy36_76x72x24_baltic_128.bin
(PID.TID 0000.0001)  MDS_READ_SEC_YZ: opening global file: OBW_Phy36_76x72x24_baltic_128.bin
(PID.TID 0000.0001)  MDS_READ_SEC_YZ: opening global file: OBW_Phy37_76x72x24_baltic_128.bin
(PID.TID 0000.0001)  MDS_READ_SEC_YZ: opening global file: OBW_Phy37_76x72x24_baltic_128.bin
(PID.TID 0000.0001)  MDS_READ_SEC_YZ: opening global file: OBW_Phy38_76x72x24_baltic_128.bin
(PID.TID 0000.0001)  MDS_READ_SEC_YZ: opening global file: OBW_Phy38_76x72x24_baltic_128.bin
(PID.TID 0000.0001)  MDS_READ_SEC_YZ: opening global file: OBW_Phy39_76x72x24_baltic_128.bin
(PID.TID 0000.0001)  MDS_READ_SEC_YZ: opening global file: OBW_Phy39_76x72x24_baltic_128.bin
(PID.TID 0000.0001)  MDS_READ_SEC_YZ: opening global file: OBW_Phy40_76x72x24_baltic_128.bin
(PID.TID 0000.0001)  MDS_READ_SEC_YZ: opening global file: OBW_Phy40_76x72x24_baltic_128.bin
(PID.TID 0000.0001)  MDS_READ_SEC_YZ: opening global file: OBW_Phy41_76x72x24_baltic_128.bin
(PID.TID 0000.0001)  MDS_READ_SEC_YZ: opening global file: OBW_Phy41_76x72x24_baltic_128.bin
(PID.TID 0000.0001)  MDS_READ_SEC_YZ: opening global file: OBW_Phy42_76x72x24_baltic_128.bin
(PID.TID 0000.0001)  MDS_READ_SEC_YZ: opening global file: OBW_Phy42_76x72x24_baltic_128.bin
(PID.TID 0000.0001)  MDS_READ_SEC_YZ: opening global file: OBW_Phy43_76x72x24_baltic_128.bin
(PID.TID 0000.0001)  MDS_READ_SEC_YZ: opening global file: OBW_Phy43_76x72x24_baltic_128.bin
(PID.TID 0000.0001)  MDS_READ_SEC_YZ: opening global file: OBW_Phy44_76x72x24_baltic_128.bin
(PID.TID 0000.0001)  MDS_READ_SEC_YZ: opening global file: OBW_Phy44_76x72x24_baltic_128.bin
(PID.TID 0000.0001)  MDS_READ_SEC_YZ: opening global file: OBW_Phy45_76x72x24_baltic_128.bin
(PID.TID 0000.0001)  MDS_READ_SEC_YZ: opening global file: OBW_Phy45_76x72x24_baltic_128.bin
(PID.TID 0000.0001)  MDS_READ_SEC_YZ: opening global file: OBW_Phy46_76x72x24_baltic_128.bin
(PID.TID 0000.0001)  MDS_READ_SEC_YZ: opening global file: OBW_Phy46_76x72x24_baltic_128.bin
(PID.TID 0000.0001)  MDS_READ_SEC_YZ: opening global file: OBW_Phy47_76x72x24_baltic_128.bin
(PID.TID 0000.0001)  MDS_READ_SEC_YZ: opening global file: OBW_Phy47_76x72x24_baltic_128.bin
(PID.TID 0000.0001)  MDS_READ_SEC_YZ: opening global file: OBW_Phy48_76x72x24_baltic_128.bin
(PID.TID 0000.0001)  MDS_READ_SEC_YZ: opening global file: OBW_Phy48_76x72x24_baltic_128.bin
(PID.TID 0000.0001)  MDS_READ_SEC_YZ: opening global file: OBW_Phy49_76x72x24_baltic_128.bin
(PID.TID 0000.0001)  MDS_READ_SEC_YZ: opening global file: OBW_Phy49_76x72x24_baltic_128.bin
(PID.TID 0000.0001)  MDS_READ_SEC_YZ: opening global file: OBW_Phy50_76x72x24_baltic_128.bin
(PID.TID 0000.0001)  MDS_READ_SEC_YZ: opening global file: OBW_Phy50_76x72x24_baltic_128.bin
(PID.TID 0000.0001)  MDS_READ_SEC_YZ: opening global file: OBW_Phy51_76x72x24_baltic_128.bin
(PID.TID 0000.0001)  MDS_READ_SEC_YZ: opening global file: OBW_Phy51_76x72x24_baltic_128.bin
(PID.TID 0000.0001)  MDS_READ_SEC_YZ: opening global file: OBW_Phy52_76x72x24_baltic_128.bin
(PID.TID 0000.0001)  MDS_READ_SEC_YZ: opening global file: OBW_Phy52_76x72x24_baltic_128.bin
(PID.TID 0000.0001)  MDS_READ_SEC_YZ: opening global file: OBW_Phy53_76x72x24_baltic_128.bin
(PID.TID 0000.0001)  MDS_READ_SEC_YZ: opening global file: OBW_Phy53_76x72x24_baltic_128.bin
(PID.TID 0000.0001)  MDS_READ_SEC_YZ: opening global file: OBW_Phy54_76x72x24_baltic_128.bin
(PID.TID 0000.0001)  MDS_READ_SEC_YZ: opening global file: OBW_Phy54_76x72x24_baltic_128.bin
(PID.TID 0000.0001)  MDS_READ_SEC_YZ: opening global file: OBW_Phy55_76x72x24_baltic_128.bin
(PID.TID 0000.0001)  MDS_READ_SEC_YZ: opening global file: OBW_Phy55_76x72x24_baltic_128.bin
(PID.TID 0000.0001)  MDS_READ_SEC_YZ: opening global file: OBW_Phy56_76x72x24_baltic_128.bin
(PID.TID 0000.0001)  MDS_READ_SEC_YZ: opening global file: OBW_Phy56_76x72x24_baltic_128.bin
(PID.TID 0000.0001)  MDS_READ_SEC_YZ: opening global file: OBW_Phy57_76x72x24_baltic_128.bin
(PID.TID 0000.0001)  MDS_READ_SEC_YZ: opening global file: OBW_Phy57_76x72x24_baltic_128.bin
(PID.TID 0000.0001)  MDS_READ_SEC_YZ: opening global file: OBW_Phy58_76x72x24_baltic_128.bin
(PID.TID 0000.0001)  MDS_READ_SEC_YZ: opening global file: OBW_Phy58_76x72x24_baltic_128.bin
(PID.TID 0000.0001)  MDS_READ_SEC_YZ: opening global file: OBW_Phy59_76x72x24_baltic_128.bin
(PID.TID 0000.0001)  MDS_READ_SEC_YZ: opening global file: OBW_Phy59_76x72x24_baltic_128.bin
(PID.TID 0000.0001)  MDS_READ_SEC_YZ: opening global file: OBW_Phy60_76x72x24_baltic_128.bin
(PID.TID 0000.0001)  MDS_READ_SEC_YZ: opening global file: OBW_Phy60_76x72x24_baltic_128.bin
(PID.TID 0000.0001)  MDS_READ_SEC_YZ: opening global file: OBW_Phy61_76x72x24_baltic_128.bin
(PID.TID 0000.0001)  MDS_READ_SEC_YZ: opening global file: OBW_Phy61_76x72x24_baltic_128.bin
(PID.TID 0000.0001)  MDS_READ_SEC_YZ: opening global file: OBW_Phy62_76x72x24_baltic_128.bin
(PID.TID 0000.0001)  MDS_READ_SEC_YZ: opening global file: OBW_Phy62_76x72x24_baltic_128.bin
(PID.TID 0000.0001)  MDS_READ_SEC_YZ: opening global file: OBW_Phy63_76x72x24_baltic_128.bin
(PID.TID 0000.0001)  MDS_READ_SEC_YZ: opening global file: OBW_Phy63_76x72x24_baltic_128.bin
(PID.TID 0000.0001)  MDS_READ_SEC_YZ: opening global file: OBW_Phy64_76x72x24_baltic_128.bin
(PID.TID 0000.0001)  MDS_READ_SEC_YZ: opening global file: OBW_Phy64_76x72x24_baltic_128.bin
(PID.TID 0000.0001)  MDS_READ_SEC_YZ: opening global file: OBW_Phy65_76x72x24_baltic_128.bin
(PID.TID 0000.0001)  MDS_READ_SEC_YZ: opening global file: OBW_Phy65_76x72x24_baltic_128.bin
(PID.TID 0000.0001)  MDS_READ_SEC_YZ: opening global file: OBW_Phy66_76x72x24_baltic_128.bin
(PID.TID 0000.0001)  MDS_READ_SEC_YZ: opening global file: OBW_Phy66_76x72x24_baltic_128.bin
(PID.TID 0000.0001)  MDS_READ_SEC_YZ: opening global file: OBW_Phy67_76x72x24_baltic_128.bin
(PID.TID 0000.0001)  MDS_READ_SEC_YZ: opening global file: OBW_Phy67_76x72x24_baltic_128.bin
(PID.TID 0000.0001)  MDS_READ_SEC_YZ: opening global file: OBW_Phy68_76x72x24_baltic_128.bin
(PID.TID 0000.0001)  MDS_READ_SEC_YZ: opening global file: OBW_Phy68_76x72x24_baltic_128.bin
(PID.TID 0000.0001)  MDS_READ_SEC_YZ: opening global file: OBW_Phy69_76x72x24_baltic_128.bin
(PID.TID 0000.0001)  MDS_READ_SEC_YZ: opening global file: OBW_Phy69_76x72x24_baltic_128.bin
(PID.TID 0000.0001)  MDS_READ_SEC_YZ: opening global file: OBW_Phy70_76x72x24_baltic_128.bin
(PID.TID 0000.0001)  MDS_READ_SEC_YZ: opening global file: OBW_Phy70_76x72x24_baltic_128.bin
(PID.TID 0000.0001)  MDS_READ_SEC_YZ: opening global file: OBW_Phy71_76x72x24_baltic_128.bin
(PID.TID 0000.0001)  MDS_READ_SEC_YZ: opening global file: OBW_Phy71_76x72x24_baltic_128.bin
(PID.TID 0000.0001)  MDS_READ_SEC_YZ: opening global file: OBW_Phy72_76x72x24_baltic_128.bin
(PID.TID 0000.0001)  MDS_READ_SEC_YZ: opening global file: OBW_Phy72_76x72x24_baltic_128.bin
(PID.TID 0000.0001)  MDS_READ_SEC_YZ: opening global file: OBW_Phy73_76x72x24_baltic_128.bin
(PID.TID 0000.0001)  MDS_READ_SEC_YZ: opening global file: OBW_Phy73_76x72x24_baltic_128.bin
(PID.TID 0000.0001)  MDS_READ_SEC_YZ: opening global file: OBW_Phy74_76x72x24_baltic_128.bin
(PID.TID 0000.0001)  MDS_READ_SEC_YZ: opening global file: OBW_Phy74_76x72x24_baltic_128.bin
(PID.TID 0000.0001)  MDS_READ_SEC_YZ: opening global file: OBW_Phy75_76x72x24_baltic_128.bin
(PID.TID 0000.0001)  MDS_READ_SEC_YZ: opening global file: OBW_Phy75_76x72x24_baltic_128.bin
(PID.TID 0000.0001)  MDS_READ_SEC_YZ: opening global file: OBW_Phy76_76x72x24_baltic_128.bin
(PID.TID 0000.0001)  MDS_READ_SEC_YZ: opening global file: OBW_Phy76_76x72x24_baltic_128.bin
(PID.TID 0000.0001)  MDS_READ_SEC_YZ: opening global file: OBW_Phy77_76x72x24_baltic_128.bin
(PID.TID 0000.0001)  MDS_READ_SEC_YZ: opening global file: OBW_Phy77_76x72x24_baltic_128.bin
(PID.TID 0000.0001)  MDS_READ_SEC_YZ: opening global file: OBW_Phy78_76x72x24_baltic_128.bin
(PID.TID 0000.0001)  MDS_READ_SEC_YZ: opening global file: OBW_Phy78_76x72x24_baltic_128.bin
(PID.TID 0000.0001) // =======================================================
(PID.TID 0000.0001) // Model current state
(PID.TID 0000.0001) // =======================================================
(PID.TID 0000.0001) 
(PID.TID 0000.0001) // =======================================================
(PID.TID 0000.0001) // Begin MONITOR dynamic field statistics
(PID.TID 0000.0001) // =======================================================
(PID.TID 0000.0001) %MON time_tsnumber                =                188388
(PID.TID 0000.0001) %MON time_secondsf                =   2.2606560000000E+08
(PID.TID 0000.0001) %MON dynstat_eta_max              =   6.7857206100959E-01
(PID.TID 0000.0001) %MON dynstat_eta_min              =   2.4834525795929E-02
(PID.TID 0000.0001) %MON dynstat_eta_mean             =   3.7231760032402E-01
(PID.TID 0000.0001) %MON dynstat_eta_sd               =   1.5436287975570E-01
(PID.TID 0000.0001) %MON dynstat_eta_del2             =   3.3947822651082E-04
(PID.TID 0000.0001) %MON dynstat_uvel_max             =   4.1043654315727E-01
(PID.TID 0000.0001) %MON dynstat_uvel_min             =  -3.3404372355546E-01
(PID.TID 0000.0001) %MON dynstat_uvel_mean            =   7.2247190886372E-03
(PID.TID 0000.0001) %MON dynstat_uvel_sd              =   6.1628348035588E-02
(PID.TID 0000.0001) %MON dynstat_uvel_del2            =   9.6493604067269E-04
(PID.TID 0000.0001) %MON dynstat_vvel_max             =   2.8285402026493E-01
(PID.TID 0000.0001) %MON dynstat_vvel_min             =  -4.5228332030971E-01
(PID.TID 0000.0001) %MON dynstat_vvel_mean            =   1.9335722007698E-03
(PID.TID 0000.0001) %MON dynstat_vvel_sd              =   6.4592845574376E-02
(PID.TID 0000.0001) %MON dynstat_vvel_del2            =   1.1515551720993E-03
(PID.TID 0000.0001) %MON dynstat_wvel_max             =   4.9575213564628E-04
(PID.TID 0000.0001) %MON dynstat_wvel_min             =  -5.0890006120395E-04
(PID.TID 0000.0001) %MON dynstat_wvel_mean            =  -2.6308567236582E-06
(PID.TID 0000.0001) %MON dynstat_wvel_sd              =   7.5801737004418E-05
(PID.TID 0000.0001) %MON dynstat_wvel_del2            =   2.0446148495701E-06
(PID.TID 0000.0001) %MON dynstat_theta_max            =   7.9698650573136E+00
(PID.TID 0000.0001) %MON dynstat_theta_min            =  -1.6138727636085E+00
(PID.TID 0000.0001) %MON dynstat_theta_mean           =   3.7798105201791E+00
(PID.TID 0000.0001) %MON dynstat_theta_sd             =   2.2019507085376E+00
(PID.TID 0000.0001) %MON dynstat_theta_del2           =   6.0422941678782E-03
(PID.TID 0000.0001) %MON dynstat_salt_max             =   3.4927700428884E+01
(PID.TID 0000.0001) %MON dynstat_salt_min             =   5.6521891769462E+00
(PID.TID 0000.0001) %MON dynstat_salt_mean            =   1.5353356064885E+01
(PID.TID 0000.0001) %MON dynstat_salt_sd              =   1.1951795815059E+01
(PID.TID 0000.0001) %MON dynstat_salt_del2            =   3.5921468721428E-03
(PID.TID 0000.0001) %MON forcing_qnet_max             =   0.0000000000000E+00
(PID.TID 0000.0001) %MON forcing_qnet_min             =   0.0000000000000E+00
(PID.TID 0000.0001) %MON forcing_qnet_mean            =   0.0000000000000E+00
(PID.TID 0000.0001) %MON forcing_qnet_sd              =   0.0000000000000E+00
(PID.TID 0000.0001) %MON forcing_qnet_del2            =   0.0000000000000E+00
(PID.TID 0000.0001) %MON forcing_qsw_max              =   0.0000000000000E+00
(PID.TID 0000.0001) %MON forcing_qsw_min              =   0.0000000000000E+00
(PID.TID 0000.0001) %MON forcing_qsw_mean             =   0.0000000000000E+00
(PID.TID 0000.0001) %MON forcing_qsw_sd               =   0.0000000000000E+00
(PID.TID 0000.0001) %MON forcing_qsw_del2             =   0.0000000000000E+00
(PID.TID 0000.0001) %MON forcing_empmr_max            =   0.0000000000000E+00
(PID.TID 0000.0001) %MON forcing_empmr_min            =   0.0000000000000E+00
(PID.TID 0000.0001) %MON forcing_empmr_mean           =   0.0000000000000E+00
(PID.TID 0000.0001) %MON forcing_empmr_sd             =   0.0000000000000E+00
(PID.TID 0000.0001) %MON forcing_empmr_del2           =   0.0000000000000E+00
(PID.TID 0000.0001) %MON forcing_fu_max               =   0.0000000000000E+00
(PID.TID 0000.0001) %MON forcing_fu_min               =   0.0000000000000E+00
(PID.TID 0000.0001) %MON forcing_fu_mean              =   0.0000000000000E+00
(PID.TID 0000.0001) %MON forcing_fu_sd                =   0.0000000000000E+00
(PID.TID 0000.0001) %MON forcing_fu_del2              =   0.0000000000000E+00
(PID.TID 0000.0001) %MON forcing_fv_max               =   0.0000000000000E+00
(PID.TID 0000.0001) %MON forcing_fv_min               =   0.0000000000000E+00
(PID.TID 0000.0001) %MON forcing_fv_mean              =   0.0000000000000E+00
(PID.TID 0000.0001) %MON forcing_fv_sd                =   0.0000000000000E+00
(PID.TID 0000.0001) %MON forcing_fv_del2              =   0.0000000000000E+00
(PID.TID 0000.0001) %MON advcfl_uvel_max              =   2.3317424706639E-02
(PID.TID 0000.0001) %MON advcfl_vvel_max              =   3.3222803653596E-02
(PID.TID 0000.0001) %MON advcfl_wvel_max              =   5.9490256277553E-02
(PID.TID 0000.0001) %MON advcfl_W_hf_max              =   5.9490256277553E-02
(PID.TID 0000.0001) %MON pe_b_mean                    =   1.3744958230235E-02
(PID.TID 0000.0001) %MON ke_max                       =   1.1199894577682E-01
(PID.TID 0000.0001) %MON ke_mean                      =   3.2427959349814E-03
(PID.TID 0000.0001) %MON ke_vol                       =   2.7634533915294E+13
(PID.TID 0000.0001) %MON vort_r_min                   =  -3.7637061990678E-05
(PID.TID 0000.0001) %MON vort_r_max                   =   3.2699331518938E-05
(PID.TID 0000.0001) %MON vort_a_mean                  =   1.2397138973741E-04
(PID.TID 0000.0001) %MON vort_a_sd                    =   6.2966918177204E-06
(PID.TID 0000.0001) %MON vort_p_mean                  =   1.7325062561132E-04
(PID.TID 0000.0001) %MON vort_p_sd                    =   1.0960208317016E-04
(PID.TID 0000.0001) %MON surfExpan_theta_mean         =  -9.0466029399821E-07
(PID.TID 0000.0001) %MON surfExpan_salt_mean          =   1.2050928594726E-06
(PID.TID 0000.0001) // =======================================================
(PID.TID 0000.0001) // End MONITOR dynamic field statistics
(PID.TID 0000.0001) // =======================================================
(PID.TID 0000.0001) // =======================================================
(PID.TID 0000.0001) // Begin OBCS MONITOR field statistics
(PID.TID 0000.0001) // =======================================================
(PID.TID 0000.0001) %MON obc_W_uVel_max               =   7.0339930350663E-02
(PID.TID 0000.0001) %MON obc_W_uVel_min               =  -1.2534759400535E-02
(PID.TID 0000.0001) %MON obc_W_uVel_mean              =   2.2514378965596E-02
(PID.TID 0000.0001) %MON obc_W_uVel_sd                =   2.5890103192371E-02
(PID.TID 0000.0001) %MON obc_W_uVel_Int               =   4.7351175925313E+04
(PID.TID 0000.0001) %MON obc_N_vVel_max               =   1.8577546101125E-01
(PID.TID 0000.0001) %MON obc_N_vVel_min               =  -2.5391576023864E-01
(PID.TID 0000.0001) %MON obc_N_vVel_mean              =   1.5193571121082E-03
(PID.TID 0000.0001) %MON obc_N_vVel_sd                =   8.5462048288721E-02
(PID.TID 0000.0001) %MON obc_N_vVel_Int               =   4.7666041382967E+04
(PID.TID 0000.0001) // =======================================================
(PID.TID 0000.0001) // End OBCS MONITOR field statistics
(PID.TID 0000.0001) // =======================================================
(PID.TID 0000.0001) // =======================================================
(PID.TID 0000.0001) // Begin MONITOR SEAICE statistics
(PID.TID 0000.0001) // =======================================================
(PID.TID 0000.0001) %MON seaice_tsnumber              =                188388
(PID.TID 0000.0001) %MON seaice_time_sec              =   2.2606560000000E+08
(PID.TID 0000.0001) %MON seaice_uice_max              =   4.0000000000000E-01
(PID.TID 0000.0001) %MON seaice_uice_min              =  -2.0818735801076E-01
(PID.TID 0000.0001) %MON seaice_uice_mean             =   1.7135534274810E-01
(PID.TID 0000.0001) %MON seaice_uice_sd               =   1.2732607744758E-01
(PID.TID 0000.0001) %MON seaice_uice_del2             =   2.4397363148550E-03
(PID.TID 0000.0001) %MON seaice_vice_max              =   4.0000000000000E-01
(PID.TID 0000.0001) %MON seaice_vice_min              =  -4.0000000000000E-01
(PID.TID 0000.0001) %MON seaice_vice_mean             =  -8.2298987070637E-02
(PID.TID 0000.0001) %MON seaice_vice_sd               =   1.4565675515411E-01
(PID.TID 0000.0001) %MON seaice_vice_del2             =   2.7744345086973E-03
(PID.TID 0000.0001) %MON seaice_area_max              =   1.0000000000000E+00
(PID.TID 0000.0001) %MON seaice_area_min              =   0.0000000000000E+00
(PID.TID 0000.0001) %MON seaice_area_mean             =   2.2620370416445E-01
(PID.TID 0000.0001) %MON seaice_area_sd               =   3.8531906057260E-01
(PID.TID 0000.0001) %MON seaice_area_del2             =   4.5224430665297E-03
(PID.TID 0000.0001) %MON seaice_heff_max              =   1.0115990757457E+00
(PID.TID 0000.0001) %MON seaice_heff_min              =   0.0000000000000E+00
(PID.TID 0000.0001) %MON seaice_heff_mean             =   1.2507534371604E-01
(PID.TID 0000.0001) %MON seaice_heff_sd               =   2.4312450293485E-01
(PID.TID 0000.0001) %MON seaice_heff_del2             =   2.2409775961535E-03
(PID.TID 0000.0001) %MON seaice_hsnow_max             =   2.7588954944145E-01
(PID.TID 0000.0001) %MON seaice_hsnow_min             =   0.0000000000000E+00
(PID.TID 0000.0001) %MON seaice_hsnow_mean            =   3.0754289927357E-02
(PID.TID 0000.0001) %MON seaice_hsnow_sd              =   6.4155555132779E-02
(PID.TID 0000.0001) %MON seaice_hsnow_del2            =   3.7889157137013E-04
(PID.TID 0000.0001) %MON seaice_sitracer01_max        =   0.0000000000000E+00
(PID.TID 0000.0001) %MON seaice_sitracer01_min        =   0.0000000000000E+00
(PID.TID 0000.0001) %MON seaice_sitracer01_mean       =   0.0000000000000E+00
(PID.TID 0000.0001) %MON seaice_sitracer01_sd         =   0.0000000000000E+00
(PID.TID 0000.0001) %MON seaice_sitracer01_del2       =   0.0000000000000E+00
(PID.TID 0000.0001) %MON seaice_sitracer02_max        =   1.0000000000000E+00
(PID.TID 0000.0001) %MON seaice_sitracer02_min        =   1.0000000000000E+00
(PID.TID 0000.0001) %MON seaice_sitracer02_mean       =   1.0000000000000E+00
(PID.TID 0000.0001) %MON seaice_sitracer02_sd         =   0.0000000000000E+00
(PID.TID 0000.0001) %MON seaice_sitracer02_del2       =   0.0000000000000E+00
(PID.TID 0000.0001) // =======================================================
(PID.TID 0000.0001) // End MONITOR SEAICE statistics
(PID.TID 0000.0001) // =======================================================
(PID.TID 0000.0001) // =======================================================
(PID.TID 0000.0001) // Begin MONITOR ptracer field statistics
(PID.TID 0000.0001) // =======================================================
(PID.TID 0000.0001) %MON trcstat_ptracer01_max        =   4.3206749483821E+00
(PID.TID 0000.0001) %MON trcstat_ptracer01_min        =   3.7997221289855E-02
(PID.TID 0000.0001) %MON trcstat_ptracer01_mean       =   5.9103671591413E-01
(PID.TID 0000.0001) %MON trcstat_ptracer01_sd         =   5.1755891503144E-01
(PID.TID 0000.0001) %MON trcstat_ptracer01_del2       =   8.6322666859242E-04
(PID.TID 0000.0001) %MON trcstat_ptracer02_max        =   4.4161324524731E+01
(PID.TID 0000.0001) %MON trcstat_ptracer02_min        =   1.4930485383354E-02
(PID.TID 0000.0001) %MON trcstat_ptracer02_mean       =   4.5816946354514E+00
(PID.TID 0000.0001) %MON trcstat_ptracer02_sd         =   6.6985150791487E+00
(PID.TID 0000.0001) %MON trcstat_ptracer02_del2       =   1.2507498180654E-02
(PID.TID 0000.0001) %MON trcstat_ptracer03_max        =   1.3876605029832E-03
(PID.TID 0000.0001) %MON trcstat_ptracer03_min        =   5.8864303059657E-04
(PID.TID 0000.0001) %MON trcstat_ptracer03_mean       =   1.0854101856158E-03
(PID.TID 0000.0001) %MON trcstat_ptracer03_sd         =   1.4544221423653E-04
(PID.TID 0000.0001) %MON trcstat_ptracer03_del2       =   4.5510068884115E-07
(PID.TID 0000.0001) %MON trcstat_ptracer04_max        =   1.5669854101844E+02
(PID.TID 0000.0001) %MON trcstat_ptracer04_min        =   6.2666926623515E-02
(PID.TID 0000.0001) %MON trcstat_ptracer04_mean       =   1.4711712348283E+01
(PID.TID 0000.0001) %MON trcstat_ptracer04_sd         =   1.7084930997852E+01
(PID.TID 0000.0001) %MON trcstat_ptracer04_del2       =   2.7884970893015E-02
(PID.TID 0000.0001) %MON trcstat_ptracer05_max        =   2.8323355230921E-01
(PID.TID 0000.0001) %MON trcstat_ptracer05_min        =   8.3402962384472E-08
(PID.TID 0000.0001) %MON trcstat_ptracer05_mean       =   5.8390098602552E-02
(PID.TID 0000.0001) %MON trcstat_ptracer05_sd         =   5.6897802496167E-02
(PID.TID 0000.0001) %MON trcstat_ptracer05_del2       =   1.4711547176595E-04
(PID.TID 0000.0001) %MON trcstat_ptracer06_max        =   4.5317368369474E+00
(PID.TID 0000.0001) %MON trcstat_ptracer06_min        =   1.3344473981516E-06
(PID.TID 0000.0001) %MON trcstat_ptracer06_mean       =   9.3424157764084E-01
(PID.TID 0000.0001) %MON trcstat_ptracer06_sd         =   9.1036483993867E-01
(PID.TID 0000.0001) %MON trcstat_ptracer06_del2       =   2.3538475482552E-03
(PID.TID 0000.0001) %MON trcstat_ptracer07_max        =   2.8323355230921E-04
(PID.TID 0000.0001) %MON trcstat_ptracer07_min        =   8.3402962384474E-11
(PID.TID 0000.0001) %MON trcstat_ptracer07_mean       =   5.8390098590765E-05
(PID.TID 0000.0001) %MON trcstat_ptracer07_sd         =   5.6897802550780E-05
(PID.TID 0000.0001) %MON trcstat_ptracer07_del2       =   1.4711547217959E-07
(PID.TID 0000.0001) %MON trcstat_ptracer08_max        =   6.9647854709921E-03
(PID.TID 0000.0001) %MON trcstat_ptracer08_min        =   6.8449298887247E-33
(PID.TID 0000.0001) %MON trcstat_ptracer08_mean       =   4.7055462529423E-04
(PID.TID 0000.0001) %MON trcstat_ptracer08_sd         =   1.1049622132115E-03
(PID.TID 0000.0001) %MON trcstat_ptracer08_del2       =   3.5973748153185E-06
(PID.TID 0000.0001) %MON trcstat_ptracer09_max        =   1.1143656753587E-01
(PID.TID 0000.0001) %MON trcstat_ptracer09_min        =   1.0951887821960E-31
(PID.TID 0000.0001) %MON trcstat_ptracer09_mean       =   7.5288740047077E-03
(PID.TID 0000.0001) %MON trcstat_ptracer09_sd         =   1.7679395411384E-02
(PID.TID 0000.0001) %MON trcstat_ptracer09_del2       =   5.7557997045096E-05
(PID.TID 0000.0001) %MON trcstat_ptracer10_max        =   6.9647854725191E-06
(PID.TID 0000.0001) %MON trcstat_ptracer10_min        =   6.8449298887533E-36
(PID.TID 0000.0001) %MON trcstat_ptracer10_mean       =   4.7055462605883E-07
(PID.TID 0000.0001) %MON trcstat_ptracer10_sd         =   1.1049622147291E-06
(PID.TID 0000.0001) %MON trcstat_ptracer10_del2       =   3.5973748206722E-09
(PID.TID 0000.0001) %MON trcstat_ptracer11_max        =   8.8836834858117E-03
(PID.TID 0000.0001) %MON trcstat_ptracer11_min        =   1.9252047993454E-32
(PID.TID 0000.0001) %MON trcstat_ptracer11_mean       =   3.4636838322483E-04
(PID.TID 0000.0001) %MON trcstat_ptracer11_sd         =   1.3409392243042E-03
(PID.TID 0000.0001) %MON trcstat_ptracer11_del2       =   4.6236138909754E-06
(PID.TID 0000.0001) %MON trcstat_ptracer12_max        =   8.4383554910404E-02
(PID.TID 0000.0001) %MON trcstat_ptracer12_min        =   8.6607919684034E-23
(PID.TID 0000.0001) %MON trcstat_ptracer12_mean       =   1.6983603915760E-03
(PID.TID 0000.0001) %MON trcstat_ptracer12_sd         =   7.4816043460020E-03
(PID.TID 0000.0001) %MON trcstat_ptracer12_del2       =   3.2200718164524E-05
(PID.TID 0000.0001) %MON trcstat_ptracer13_max        =   1.3501368785665E+00
(PID.TID 0000.0001) %MON trcstat_ptracer13_min        =   1.3857267149445E-21
(PID.TID 0000.0001) %MON trcstat_ptracer13_mean       =   2.7173766265216E-02
(PID.TID 0000.0001) %MON trcstat_ptracer13_sd         =   1.1970566953603E-01
(PID.TID 0000.0001) %MON trcstat_ptracer13_del2       =   5.1521149063238E-04
(PID.TID 0000.0001) %MON trcstat_ptracer14_max        =   8.4383554962399E-05
(PID.TID 0000.0001) %MON trcstat_ptracer14_min        =   8.6607919684020E-26
(PID.TID 0000.0001) %MON trcstat_ptracer14_mean       =   1.6983603928814E-06
(PID.TID 0000.0001) %MON trcstat_ptracer14_sd         =   7.4816043495322E-06
(PID.TID 0000.0001) %MON trcstat_ptracer14_del2       =   3.2200718187501E-08
(PID.TID 0000.0001) %MON trcstat_ptracer15_max        =   9.5267285338550E-01
(PID.TID 0000.0001) %MON trcstat_ptracer15_min        =   9.4158071617928E-22
(PID.TID 0000.0001) %MON trcstat_ptracer15_mean       =   1.8561521721316E-02
(PID.TID 0000.0001) %MON trcstat_ptracer15_sd         =   9.2704495151323E-02
(PID.TID 0000.0001) %MON trcstat_ptracer15_del2       =   4.8296957623638E-04
(PID.TID 0000.0001) %MON trcstat_ptracer16_max        =   1.0120978226739E+00
(PID.TID 0000.0001) %MON trcstat_ptracer16_min        =   3.3728982922276E-09
(PID.TID 0000.0001) %MON trcstat_ptracer16_mean       =   2.0440436506220E-02
(PID.TID 0000.0001) %MON trcstat_ptracer16_sd         =   4.9039606410552E-02
(PID.TID 0000.0001) %MON trcstat_ptracer16_del2       =   2.9730589512295E-04
(PID.TID 0000.0001) %MON trcstat_ptracer17_max        =   1.6193565162783E+01
(PID.TID 0000.0001) %MON trcstat_ptracer17_min        =   5.3966372675641E-08
(PID.TID 0000.0001) %MON trcstat_ptracer17_mean       =   3.2704698409952E-01
(PID.TID 0000.0001) %MON trcstat_ptracer17_sd         =   7.8463370256883E-01
(PID.TID 0000.0001) %MON trcstat_ptracer17_del2       =   4.7568943219673E-03
(PID.TID 0000.0001) %MON trcstat_ptracer18_max        =   1.0120978226739E-03
(PID.TID 0000.0001) %MON trcstat_ptracer18_min        =   3.3728982922276E-12
(PID.TID 0000.0001) %MON trcstat_ptracer18_mean       =   2.0440436510832E-05
(PID.TID 0000.0001) %MON trcstat_ptracer18_sd         =   4.9039606407545E-05
(PID.TID 0000.0001) %MON trcstat_ptracer18_del2       =   2.9730589535056E-07
(PID.TID 0000.0001) %MON trcstat_ptracer19_max        =   3.0580937614224E+02
(PID.TID 0000.0001) %MON trcstat_ptracer19_min        =   9.2263135852666E-08
(PID.TID 0000.0001) %MON trcstat_ptracer19_mean       =   2.2926781173420E+00
(PID.TID 0000.0001) %MON trcstat_ptracer19_sd         =   1.2523619914418E+01
(PID.TID 0000.0001) %MON trcstat_ptracer19_del2       =   5.3794026014665E-02
(PID.TID 0000.0001) %MON trcstat_ptracer20_max        =   2.4088283189212E-01
(PID.TID 0000.0001) %MON trcstat_ptracer20_min        =   2.2474205615250E-07
(PID.TID 0000.0001) %MON trcstat_ptracer20_mean       =   1.3306268867076E-02
(PID.TID 0000.0001) %MON trcstat_ptracer20_sd         =   1.7399648106629E-02
(PID.TID 0000.0001) %MON trcstat_ptracer20_del2       =   8.4392226997532E-04
(PID.TID 0000.0001) %MON trcstat_ptracer21_max        =   2.3343713360813E+00
(PID.TID 0000.0001) %MON trcstat_ptracer21_min        =   3.0233044741169E-05
(PID.TID 0000.0001) %MON trcstat_ptracer21_mean       =   1.5995994386708E-01
(PID.TID 0000.0001) %MON trcstat_ptracer21_sd         =   1.8965697331950E-01
(PID.TID 0000.0001) %MON trcstat_ptracer21_del2       =   7.1050919677115E-04
(PID.TID 0000.0001) %MON trcstat_ptracer22_max        =   5.5967341062926E-05
(PID.TID 0000.0001) %MON trcstat_ptracer22_min        =  -2.1068568895987E-19
(PID.TID 0000.0001) %MON trcstat_ptracer22_mean       =   1.2481819160899E-07
(PID.TID 0000.0001) %MON trcstat_ptracer22_sd         =   1.8007065322203E-06
(PID.TID 0000.0001) %MON trcstat_ptracer22_del2       =   4.5195802718650E-08
(PID.TID 0000.0001) %MON trcstat_ptracer23_max        =   5.2843830960099E-04
(PID.TID 0000.0001) %MON trcstat_ptracer23_min        =  -2.2601834304610E-24
(PID.TID 0000.0001) %MON trcstat_ptracer23_mean       =   7.3795028174922E-06
(PID.TID 0000.0001) %MON trcstat_ptracer23_sd         =   4.0192279684220E-05
(PID.TID 0000.0001) %MON trcstat_ptracer23_del2       =   1.9123717578517E-07
(PID.TID 0000.0001) %MON trcstat_ptracer24_max        =   5.5967347214566E-05
(PID.TID 0000.0001) %MON trcstat_ptracer24_min        =   5.7064853757695E-51
(PID.TID 0000.0001) %MON trcstat_ptracer24_mean       =   1.2494967165753E-07
(PID.TID 0000.0001) %MON trcstat_ptracer24_sd         =   1.8006974342067E-06
(PID.TID 0000.0001) %MON trcstat_ptracer24_del2       =   4.5195812806605E-08
(PID.TID 0000.0001) %MON trcstat_ptracer25_max        =   1.4221523590918E-04
(PID.TID 0000.0001) %MON trcstat_ptracer25_min        =   8.0626613654933E-34
(PID.TID 0000.0001) %MON trcstat_ptracer25_mean       =   2.6879357843541E-06
(PID.TID 0000.0001) %MON trcstat_ptracer25_sd         =   1.0781896051540E-05
(PID.TID 0000.0001) %MON trcstat_ptracer25_del2       =   1.0483904322956E-07
(PID.TID 0000.0001) %MON trcstat_ptracer26_max        =   5.2396286493971E-05
(PID.TID 0000.0001) %MON trcstat_ptracer26_min        =  -2.6882116635655E-17
(PID.TID 0000.0001) %MON trcstat_ptracer26_mean       =   1.0603095630495E-07
(PID.TID 0000.0001) %MON trcstat_ptracer26_sd         =   1.6566376866349E-06
(PID.TID 0000.0001) %MON trcstat_ptracer26_del2       =   4.6221061278219E-08
(PID.TID 0000.0001) %MON trcstat_ptracer27_max        =   9.7127422252595E-03
(PID.TID 0000.0001) %MON trcstat_ptracer27_min        =   1.2909476433221E-19
(PID.TID 0000.0001) %MON trcstat_ptracer27_mean       =   2.4684743120779E-04
(PID.TID 0000.0001) %MON trcstat_ptracer27_sd         =   6.7911178382945E-04
(PID.TID 0000.0001) %MON trcstat_ptracer27_del2       =   5.3500747170821E-06
(PID.TID 0000.0001) %MON trcstat_ptracer28_max        =   9.2614081803030E-02
(PID.TID 0000.0001) %MON trcstat_ptracer28_min        =   6.7039063162443E-24
(PID.TID 0000.0001) %MON trcstat_ptracer28_mean       =   1.6221451370111E-03
(PID.TID 0000.0001) %MON trcstat_ptracer28_sd         =   5.8988109481915E-03
(PID.TID 0000.0001) %MON trcstat_ptracer28_del2       =   4.6598528221752E-05
(PID.TID 0000.0001) %MON trcstat_ptracer29_max        =   1.0589134326474E-03
(PID.TID 0000.0001) %MON trcstat_ptracer29_min        =   9.9999999999874E-51
(PID.TID 0000.0001) %MON trcstat_ptracer29_mean       =   2.9978571494985E-06
(PID.TID 0000.0001) %MON trcstat_ptracer29_sd         =   2.4240377196495E-05
(PID.TID 0000.0001) %MON trcstat_ptracer29_del2       =   1.7106444842169E-07
(PID.TID 0000.0001) %MON trcstat_ptracer30_max        =   1.3077290271310E-02
(PID.TID 0000.0001) %MON trcstat_ptracer30_min        =   1.2203773482465E-29
(PID.TID 0000.0001) %MON trcstat_ptracer30_mean       =   1.3958926316643E-04
(PID.TID 0000.0001) %MON trcstat_ptracer30_sd         =   7.2440161560598E-04
(PID.TID 0000.0001) %MON trcstat_ptracer30_del2       =   7.3243488431846E-06
(PID.TID 0000.0001) %MON trcstat_ptracer31_max        =   5.4071419308420E-05
(PID.TID 0000.0001) %MON trcstat_ptracer31_min        =   1.2604356144618E-14
(PID.TID 0000.0001) %MON trcstat_ptracer31_mean       =   1.1707133822589E-07
(PID.TID 0000.0001) %MON trcstat_ptracer31_sd         =   1.7510830776966E-06
(PID.TID 0000.0001) %MON trcstat_ptracer31_del2       =   4.5374891054499E-08
(PID.TID 0000.0001) %MON trcstat_ptracer32_max        =   5.4071298459525E-05
(PID.TID 0000.0001) %MON trcstat_ptracer32_min        =  -5.4490588694353E-19
(PID.TID 0000.0001) %MON trcstat_ptracer32_mean       =   1.1573431342149E-07
(PID.TID 0000.0001) %MON trcstat_ptracer32_sd         =   1.7511551702818E-06
(PID.TID 0000.0001) %MON trcstat_ptracer32_del2       =   4.5374921134716E-08
(PID.TID 0000.0001) %MON trcstat_ptracer33_max        =   5.2396286494858E-05
(PID.TID 0000.0001) %MON trcstat_ptracer33_min        =  -2.0622544588523E-21
(PID.TID 0000.0001) %MON trcstat_ptracer33_mean       =   1.0603095647621E-07
(PID.TID 0000.0001) %MON trcstat_ptracer33_sd         =   1.6566376866558E-06
(PID.TID 0000.0001) %MON trcstat_ptracer33_del2       =   4.6221061277921E-08
(PID.TID 0000.0001) %MON trcstat_ptracer34_max        =   5.5967341062544E-05
(PID.TID 0000.0001) %MON trcstat_ptracer34_min        =   5.6873593344934E-51
(PID.TID 0000.0001) %MON trcstat_ptracer34_mean       =   1.2481912774953E-07
(PID.TID 0000.0001) %MON trcstat_ptracer34_sd         =   1.8007064654532E-06
(PID.TID 0000.0001) %MON trcstat_ptracer34_del2       =   4.5195802759586E-08
(PID.TID 0000.0001) %MON trcstat_ptracer35_max        =   5.2396286494658E-05
(PID.TID 0000.0001) %MON trcstat_ptracer35_min        =  -2.5997025267099E-17
(PID.TID 0000.0001) %MON trcstat_ptracer35_mean       =   1.0603095630764E-07
(PID.TID 0000.0001) %MON trcstat_ptracer35_sd         =   1.6566376866570E-06
(PID.TID 0000.0001) %MON trcstat_ptracer35_del2       =   4.6221061278055E-08
(PID.TID 0000.0001) %MON trcstat_ptracer36_max        =   5.5967341050580E-05
(PID.TID 0000.0001) %MON trcstat_ptracer36_min        =  -5.8860784472533E-19
(PID.TID 0000.0001) %MON trcstat_ptracer36_mean       =   1.2481771671868E-07
(PID.TID 0000.0001) %MON trcstat_ptracer36_sd         =   1.8007065657790E-06
(PID.TID 0000.0001) %MON trcstat_ptracer36_del2       =   4.5195802664548E-08
(PID.TID 0000.0001) %MON trcstat_ptracer37_max        =   5.5967351567293E-05
(PID.TID 0000.0001) %MON trcstat_ptracer37_min        =  -3.8819847781105E-36
(PID.TID 0000.0001) %MON trcstat_ptracer37_mean       =   1.2763728426274E-07
(PID.TID 0000.0001) %MON trcstat_ptracer37_sd         =   1.8005220555621E-06
(PID.TID 0000.0001) %MON trcstat_ptracer37_del2       =   4.5195824467955E-08
(PID.TID 0000.0001) %MON trcstat_ptracer38_max        =   7.1141349831024E-05
(PID.TID 0000.0001) %MON trcstat_ptracer38_min        =   9.8830981135001E-51
(PID.TID 0000.0001) %MON trcstat_ptracer38_mean       =   1.7587199982653E-07
(PID.TID 0000.0001) %MON trcstat_ptracer38_sd         =   2.2647618561945E-06
(PID.TID 0000.0001) %MON trcstat_ptracer38_del2       =   4.3443317679869E-08
(PID.TID 0000.0001) %MON trcstat_ptracer39_max        =   2.8406180922051E-03
(PID.TID 0000.0001) %MON trcstat_ptracer39_min        =   7.4217720087748E-33
(PID.TID 0000.0001) %MON trcstat_ptracer39_mean       =   1.8803041782059E-05
(PID.TID 0000.0001) %MON trcstat_ptracer39_sd         =   1.3626683753278E-04
(PID.TID 0000.0001) %MON trcstat_ptracer39_del2       =   1.0229832977201E-06
(PID.TID 0000.0001) %MON trcstat_ptracer40_max        =   5.5967341050598E-05
(PID.TID 0000.0001) %MON trcstat_ptracer40_min        =  -7.0886205306079E-19
(PID.TID 0000.0001) %MON trcstat_ptracer40_mean       =   1.2481771502910E-07
(PID.TID 0000.0001) %MON trcstat_ptracer40_sd         =   1.8007065659039E-06
(PID.TID 0000.0001) %MON trcstat_ptracer40_del2       =   4.5195802664353E-08
(PID.TID 0000.0001) %MON trcstat_ptracer41_max        =   5.5967341051645E-05
(PID.TID 0000.0001) %MON trcstat_ptracer41_min        =  -4.8650340804781E-18
(PID.TID 0000.0001) %MON trcstat_ptracer41_mean       =   1.2481771414716E-07
(PID.TID 0000.0001) %MON trcstat_ptracer41_sd         =   1.8007065660692E-06
(PID.TID 0000.0001) %MON trcstat_ptracer41_del2       =   4.5195802663801E-08
(PID.TID 0000.0001) %MON trcstat_ptracer42_max        =   5.2396303503363E-05
(PID.TID 0000.0001) %MON trcstat_ptracer42_min        =   7.4528256786182E-17
(PID.TID 0000.0001) %MON trcstat_ptracer42_mean       =   1.0703467666437E-07
(PID.TID 0000.0001) %MON trcstat_ptracer42_sd         =   1.6565910482639E-06
(PID.TID 0000.0001) %MON trcstat_ptracer42_del2       =   4.6221062740077E-08
(PID.TID 0000.0001) %MON trcstat_ptracer43_max        =   1.0402761993185E-03
(PID.TID 0000.0001) %MON trcstat_ptracer43_min        =   5.4384486400568E-14
(PID.TID 0000.0001) %MON trcstat_ptracer43_mean       =   2.2993125343481E-05
(PID.TID 0000.0001) %MON trcstat_ptracer43_sd         =   8.2523767744197E-05
(PID.TID 0000.0001) %MON trcstat_ptracer43_del2       =   6.4831477407900E-07
(PID.TID 0000.0001) %MON trcstat_ptracer44_max        =   5.5967341719345E-05
(PID.TID 0000.0001) %MON trcstat_ptracer44_min        =  -1.3558520158725E-31
(PID.TID 0000.0001) %MON trcstat_ptracer44_mean       =   1.2483687927754E-07
(PID.TID 0000.0001) %MON trcstat_ptracer44_sd         =   1.8007052447138E-06
(PID.TID 0000.0001) %MON trcstat_ptracer44_del2       =   4.5195803441413E-08
(PID.TID 0000.0001) %MON trcstat_ptracer45_max        =   1.0569470904393E-04
(PID.TID 0000.0001) %MON trcstat_ptracer45_min        =   1.4103338108970E-50
(PID.TID 0000.0001) %MON trcstat_ptracer45_mean       =   3.7064319239322E-07
(PID.TID 0000.0001) %MON trcstat_ptracer45_sd         =   3.9377297831146E-06
(PID.TID 0000.0001) %MON trcstat_ptracer45_del2       =   4.6130036661104E-08
(PID.TID 0000.0001) %MON trcstat_ptracer46_max        =   5.4071298459943E-05
(PID.TID 0000.0001) %MON trcstat_ptracer46_min        =  -6.1882451432111E-21
(PID.TID 0000.0001) %MON trcstat_ptracer46_mean       =   1.1573431363857E-07
(PID.TID 0000.0001) %MON trcstat_ptracer46_sd         =   1.7511551702821E-06
(PID.TID 0000.0001) %MON trcstat_ptracer46_del2       =   4.5374921134610E-08
(PID.TID 0000.0001) %MON trcstat_ptracer47_max        =   5.5967341050726E-05
(PID.TID 0000.0001) %MON trcstat_ptracer47_min        =  -5.1799838144690E-19
(PID.TID 0000.0001) %MON trcstat_ptracer47_mean       =   1.2481773187435E-07
(PID.TID 0000.0001) %MON trcstat_ptracer47_sd         =   1.8007065647083E-06
(PID.TID 0000.0001) %MON trcstat_ptracer47_del2       =   4.5195802666322E-08
(PID.TID 0000.0001) %MON trcstat_ptracer48_max        =   5.5967341054749E-05
(PID.TID 0000.0001) %MON trcstat_ptracer48_min        =  -7.7575685454316E-35
(PID.TID 0000.0001) %MON trcstat_ptracer48_mean       =   1.2481818097626E-07
(PID.TID 0000.0001) %MON trcstat_ptracer48_sd         =   1.8007065330443E-06
(PID.TID 0000.0001) %MON trcstat_ptracer48_del2       =   4.5195802691057E-08
(PID.TID 0000.0001) %MON trcstat_ptracer49_max        =   5.5967927557977E-05
(PID.TID 0000.0001) %MON trcstat_ptracer49_min        =   7.8265283313859E-51
(PID.TID 0000.0001) %MON trcstat_ptracer49_mean       =   1.3829237583114E-07
(PID.TID 0000.0001) %MON trcstat_ptracer49_sd         =   1.8004975232749E-06
(PID.TID 0000.0001) %MON trcstat_ptracer49_del2       =   4.5198371351047E-08
(PID.TID 0000.0001) %MON trcstat_ptracer50_max        =   5.6537487652804E-05
(PID.TID 0000.0001) %MON trcstat_ptracer50_min        =   9.6062184489296E-51
(PID.TID 0000.0001) %MON trcstat_ptracer50_mean       =   1.6447228613556E-07
(PID.TID 0000.0001) %MON trcstat_ptracer50_sd         =   2.2599276502752E-06
(PID.TID 0000.0001) %MON trcstat_ptracer50_del2       =   4.1020827794397E-08
(PID.TID 0000.0001) %MON trcstat_ptracer51_max        =   5.5967532397011E-05
(PID.TID 0000.0001) %MON trcstat_ptracer51_min        =   1.0000000768515E-50
(PID.TID 0000.0001) %MON trcstat_ptracer51_mean       =   1.3982912957896E-07
(PID.TID 0000.0001) %MON trcstat_ptracer51_sd         =   1.7999739372687E-06
(PID.TID 0000.0001) %MON trcstat_ptracer51_del2       =   4.5196431130026E-08
(PID.TID 0000.0001) %MON trcstat_ptracer52_max        =   5.7448992405981E-05
(PID.TID 0000.0001) %MON trcstat_ptracer52_min        =   4.4982833324970E-50
(PID.TID 0000.0001) %MON trcstat_ptracer52_mean       =   1.4565952506005E-07
(PID.TID 0000.0001) %MON trcstat_ptracer52_sd         =   2.1285621736074E-06
(PID.TID 0000.0001) %MON trcstat_ptracer52_del2       =   4.1863744685688E-08
(PID.TID 0000.0001) %MON trcstat_ptracer53_max        =   5.2396286496747E-05
(PID.TID 0000.0001) %MON trcstat_ptracer53_min        =  -2.5766996840906E-17
(PID.TID 0000.0001) %MON trcstat_ptracer53_mean       =   1.0603095631392E-07
(PID.TID 0000.0001) %MON trcstat_ptracer53_sd         =   1.6566376867413E-06
(PID.TID 0000.0001) %MON trcstat_ptracer53_del2       =   4.6221061277343E-08
(PID.TID 0000.0001) %MON trcstat_ptracer54_max        =   5.5967341051670E-05
(PID.TID 0000.0001) %MON trcstat_ptracer54_min        =  -4.2532941173473E-18
(PID.TID 0000.0001) %MON trcstat_ptracer54_mean       =   1.2481771414596E-07
(PID.TID 0000.0001) %MON trcstat_ptracer54_sd         =   1.8007065660607E-06
(PID.TID 0000.0001) %MON trcstat_ptracer54_del2       =   4.5195802663832E-08
(PID.TID 0000.0001) %MON trcstat_ptracer55_max        =   5.2396286496534E-05
(PID.TID 0000.0001) %MON trcstat_ptracer55_min        =  -2.1335931332555E-23
(PID.TID 0000.0001) %MON trcstat_ptracer55_mean       =   1.0603095663054E-07
(PID.TID 0000.0001) %MON trcstat_ptracer55_sd         =   1.6566376867175E-06
(PID.TID 0000.0001) %MON trcstat_ptracer55_del2       =   4.6221061277355E-08
(PID.TID 0000.0001) %MON trcstat_ptracer56_max        =   2.9313365916178E-02
(PID.TID 0000.0001) %MON trcstat_ptracer56_min        =   4.4549432623710E-41
(PID.TID 0000.0001) %MON trcstat_ptracer56_mean       =   3.3286809334031E-04
(PID.TID 0000.0001) %MON trcstat_ptracer56_sd         =   1.8469618739194E-03
(PID.TID 0000.0001) %MON trcstat_ptracer56_del2       =   9.4586892053644E-06
(PID.TID 0000.0001) %MON trcstat_ptracer57_max        =   5.3517556668241E-04
(PID.TID 0000.0001) %MON trcstat_ptracer57_min        =   1.6274198236569E-44
(PID.TID 0000.0001) %MON trcstat_ptracer57_mean       =   9.6772809706231E-07
(PID.TID 0000.0001) %MON trcstat_ptracer57_sd         =   9.6622596759441E-06
(PID.TID 0000.0001) %MON trcstat_ptracer57_del2       =   8.9851273482122E-08
(PID.TID 0000.0001) %MON trcstat_ptracer58_max        =   1.0608220092720E-04
(PID.TID 0000.0001) %MON trcstat_ptracer58_min        =   9.9206176004314E-34
(PID.TID 0000.0001) %MON trcstat_ptracer58_mean       =   2.1730046553898E-07
(PID.TID 0000.0001) %MON trcstat_ptracer58_sd         =   3.2822256578226E-06
(PID.TID 0000.0001) %MON trcstat_ptracer58_del2       =   4.3891086206434E-08
(PID.TID 0000.0001) %MON trcstat_ptracer59_max        =   7.8382129569198E-05
(PID.TID 0000.0001) %MON trcstat_ptracer59_min        =   9.7961551570302E-51
(PID.TID 0000.0001) %MON trcstat_ptracer59_mean       =   2.0430883214285E-07
(PID.TID 0000.0001) %MON trcstat_ptracer59_sd         =   2.5570872283984E-06
(PID.TID 0000.0001) %MON trcstat_ptracer59_del2       =   4.1776315032850E-08
(PID.TID 0000.0001) %MON trcstat_ptracer60_max        =   7.7062931318486E-05
(PID.TID 0000.0001) %MON trcstat_ptracer60_min        =  -6.1992234955829E-32
(PID.TID 0000.0001) %MON trcstat_ptracer60_mean       =   2.0682289730861E-07
(PID.TID 0000.0001) %MON trcstat_ptracer60_sd         =   2.9421361873644E-06
(PID.TID 0000.0001) %MON trcstat_ptracer60_del2       =   3.9711946737702E-08
(PID.TID 0000.0001) %MON trcstat_ptracer61_max        =   6.8440278099464E-05
(PID.TID 0000.0001) %MON trcstat_ptracer61_min        =   6.6447420237134E-30
(PID.TID 0000.0001) %MON trcstat_ptracer61_mean       =   1.5131989292405E-07
(PID.TID 0000.0001) %MON trcstat_ptracer61_sd         =   2.3735803247347E-06
(PID.TID 0000.0001) %MON trcstat_ptracer61_del2       =   4.1271578086905E-08
(PID.TID 0000.0001) %MON trcstat_ptracer62_max        =   6.9029612794092E-05
(PID.TID 0000.0001) %MON trcstat_ptracer62_min        =   9.9280675073996E-51
(PID.TID 0000.0001) %MON trcstat_ptracer62_mean       =   1.6984895633882E-07
(PID.TID 0000.0001) %MON trcstat_ptracer62_sd         =   2.1940180201669E-06
(PID.TID 0000.0001) %MON trcstat_ptracer62_del2       =   4.3882094376246E-08
(PID.TID 0000.0001) %MON trcstat_ptracer63_max        =   6.7694839809243E-05
(PID.TID 0000.0001) %MON trcstat_ptracer63_min        =   9.5792358700654E-51
(PID.TID 0000.0001) %MON trcstat_ptracer63_mean       =   2.4310507793578E-07
(PID.TID 0000.0001) %MON trcstat_ptracer63_sd         =   2.9683244626464E-06
(PID.TID 0000.0001) %MON trcstat_ptracer63_del2       =   3.8590785799025E-08
(PID.TID 0000.0001) %MON trcstat_ptracer64_max        =   4.6629242961928E-04
(PID.TID 0000.0001) %MON trcstat_ptracer64_min        =  -1.7896198135753E-24
(PID.TID 0000.0001) %MON trcstat_ptracer64_mean       =   1.8283215921987E-06
(PID.TID 0000.0001) %MON trcstat_ptracer64_sd         =   1.7144829460314E-05
(PID.TID 0000.0001) %MON trcstat_ptracer64_del2       =   2.2858484279360E-07
(PID.TID 0000.0001) %MON trcstat_ptracer65_max        =   5.4071302864911E-05
(PID.TID 0000.0001) %MON trcstat_ptracer65_min        =   4.1223338478500E-18
(PID.TID 0000.0001) %MON trcstat_ptracer65_mean       =   1.1574159133061E-07
(PID.TID 0000.0001) %MON trcstat_ptracer65_sd         =   1.7511550444459E-06
(PID.TID 0000.0001) %MON trcstat_ptracer65_del2       =   4.5374919128453E-08
(PID.TID 0000.0001) %MON trcstat_ptracer66_max        =   5.5967341050674E-05
(PID.TID 0000.0001) %MON trcstat_ptracer66_min        =  -5.1234188284283E-19
(PID.TID 0000.0001) %MON trcstat_ptracer66_mean       =   1.2481773986691E-07
(PID.TID 0000.0001) %MON trcstat_ptracer66_sd         =   1.8007065641308E-06
(PID.TID 0000.0001) %MON trcstat_ptracer66_del2       =   4.5195802667229E-08
(PID.TID 0000.0001) %MON trcstat_ptracer67_max        =   5.2396286496304E-05
(PID.TID 0000.0001) %MON trcstat_ptracer67_min        =  -2.6411543483936E-17
(PID.TID 0000.0001) %MON trcstat_ptracer67_mean       =   1.0603095631366E-07
(PID.TID 0000.0001) %MON trcstat_ptracer67_sd         =   1.6566376867296E-06
(PID.TID 0000.0001) %MON trcstat_ptracer67_del2       =   4.6221061277472E-08
(PID.TID 0000.0001) %MON trcstat_ptracer68_max        =   5.2396286495935E-05
(PID.TID 0000.0001) %MON trcstat_ptracer68_min        =  -6.3919609149577E-25
(PID.TID 0000.0001) %MON trcstat_ptracer68_mean       =   1.0603095826156E-07
(PID.TID 0000.0001) %MON trcstat_ptracer68_sd         =   1.6566376865839E-06
(PID.TID 0000.0001) %MON trcstat_ptracer68_del2       =   4.6221061277558E-08
(PID.TID 0000.0001) %MON trcstat_ptracer69_max        =   5.5967341049561E-05
(PID.TID 0000.0001) %MON trcstat_ptracer69_min        =  -5.8636483185960E-19
(PID.TID 0000.0001) %MON trcstat_ptracer69_mean       =   1.2481771899034E-07
(PID.TID 0000.0001) %MON trcstat_ptracer69_sd         =   1.8007065655524E-06
(PID.TID 0000.0001) %MON trcstat_ptracer69_del2       =   4.5195802665373E-08
(PID.TID 0000.0001) %MON trcstat_ptracer70_max        =   5.5967341051759E-05
(PID.TID 0000.0001) %MON trcstat_ptracer70_min        =  -2.6725416286017E-18
(PID.TID 0000.0001) %MON trcstat_ptracer70_mean       =   1.2481771416237E-07
(PID.TID 0000.0001) %MON trcstat_ptracer70_sd         =   1.8007065660658E-06
(PID.TID 0000.0001) %MON trcstat_ptracer70_del2       =   4.5195802663809E-08
(PID.TID 0000.0001) %MON trcstat_ptracer71_max        =   1.1446737089586E-04
(PID.TID 0000.0001) %MON trcstat_ptracer71_min        =   7.8169320696377E-31
(PID.TID 0000.0001) %MON trcstat_ptracer71_mean       =   2.4861230127415E-07
(PID.TID 0000.0001) %MON trcstat_ptracer71_sd         =   3.4812798919812E-06
(PID.TID 0000.0001) %MON trcstat_ptracer71_del2       =   4.5767386069771E-08
(PID.TID 0000.0001) %MON trcstat_ptracer72_max        =   5.5967341072038E-05
(PID.TID 0000.0001) %MON trcstat_ptracer72_min        =   9.9844356148597E-51
(PID.TID 0000.0001) %MON trcstat_ptracer72_mean       =   1.2481910832234E-07
(PID.TID 0000.0001) %MON trcstat_ptracer72_sd         =   1.8007064682891E-06
(PID.TID 0000.0001) %MON trcstat_ptracer72_del2       =   4.5195802743689E-08
(PID.TID 0000.0001) %MON trcstat_ptracer73_max        =   1.9021361126894E-02
(PID.TID 0000.0001) %MON trcstat_ptracer73_min        =  -3.8576318333180E-19
(PID.TID 0000.0001) %MON trcstat_ptracer73_mean       =   6.2606672622080E-04
(PID.TID 0000.0001) %MON trcstat_ptracer73_sd         =   1.6788510479012E-03
(PID.TID 0000.0001) %MON trcstat_ptracer73_del2       =   1.0056953062454E-05
(PID.TID 0000.0001) %MON trcstat_ptracer74_max        =   5.4071298461127E-05
(PID.TID 0000.0001) %MON trcstat_ptracer74_min        =  -1.3361676678101E-18
(PID.TID 0000.0001) %MON trcstat_ptracer74_mean       =   1.1573431342729E-07
(PID.TID 0000.0001) %MON trcstat_ptracer74_sd         =   1.7511551703444E-06
(PID.TID 0000.0001) %MON trcstat_ptracer74_del2       =   4.5374921134288E-08
(PID.TID 0000.0001) %MON trcstat_ptracer75_max        =   5.4141560771428E-05
(PID.TID 0000.0001) %MON trcstat_ptracer75_min        =   4.9755948754102E-37
(PID.TID 0000.0001) %MON trcstat_ptracer75_mean       =   1.3837416617135E-07
(PID.TID 0000.0001) %MON trcstat_ptracer75_sd         =   1.8176932497075E-06
(PID.TID 0000.0001) %MON trcstat_ptracer75_del2       =   4.4483658039513E-08
(PID.TID 0000.0001) %MON trcstat_ptracer76_max        =   5.2396286496381E-05
(PID.TID 0000.0001) %MON trcstat_ptracer76_min        =  -2.4504058678242E-19
(PID.TID 0000.0001) %MON trcstat_ptracer76_mean       =   1.0603095633037E-07
(PID.TID 0000.0001) %MON trcstat_ptracer76_sd         =   1.6566376867211E-06
(PID.TID 0000.0001) %MON trcstat_ptracer76_del2       =   4.6221061277496E-08
(PID.TID 0000.0001) %MON trcstat_ptracer77_max        =   5.2396286583433E-05
(PID.TID 0000.0001) %MON trcstat_ptracer77_min        =   6.7707373415795E-29
(PID.TID 0000.0001) %MON trcstat_ptracer77_mean       =   1.0603116467040E-07
(PID.TID 0000.0001) %MON trcstat_ptracer77_sd         =   1.6566376809101E-06
(PID.TID 0000.0001) %MON trcstat_ptracer77_del2       =   4.6221061229310E-08
(PID.TID 0000.0001) %MON trcstat_ptracer78_max        =   5.2396286496094E-05
(PID.TID 0000.0001) %MON trcstat_ptracer78_min        =  -1.3680096799808E-17
(PID.TID 0000.0001) %MON trcstat_ptracer78_mean       =   1.0603095631214E-07
(PID.TID 0000.0001) %MON trcstat_ptracer78_sd         =   1.6566376867106E-06
(PID.TID 0000.0001) %MON trcstat_ptracer78_del2       =   4.6221061277642E-08
(PID.TID 0000.0001) %MON trcstat_ptracer79_max        =   9.6361439117310E-02
(PID.TID 0000.0001) %MON trcstat_ptracer79_min        =   3.2629111351419E-15
(PID.TID 0000.0001) %MON trcstat_ptracer79_mean       =   6.7944633069952E-03
(PID.TID 0000.0001) %MON trcstat_ptracer79_sd         =   1.0416241523326E-02
(PID.TID 0000.0001) %MON trcstat_ptracer79_del2       =   6.2699628945288E-05
(PID.TID 0000.0001) %MON trcstat_ptracer80_max        =   5.5967341053957E-05
(PID.TID 0000.0001) %MON trcstat_ptracer80_min        =  -1.4834628131303E-23
(PID.TID 0000.0001) %MON trcstat_ptracer80_mean       =   1.2481791406532E-07
(PID.TID 0000.0001) %MON trcstat_ptracer80_sd         =   1.8007065518152E-06
(PID.TID 0000.0001) %MON trcstat_ptracer80_del2       =   4.5195802681014E-08
(PID.TID 0000.0001) %MON trcstat_ptracer81_max        =   5.6162257941066E-05
(PID.TID 0000.0001) %MON trcstat_ptracer81_min        =   8.7280875121907E-51
(PID.TID 0000.0001) %MON trcstat_ptracer81_mean       =   1.4125977120472E-07
(PID.TID 0000.0001) %MON trcstat_ptracer81_sd         =   2.0120589568869E-06
(PID.TID 0000.0001) %MON trcstat_ptracer81_del2       =   4.2851116525516E-08
(PID.TID 0000.0001) %MON trcstat_ptracer82_max        =   1.4744772006377E-04
(PID.TID 0000.0001) %MON trcstat_ptracer82_min        =  -5.3354932311956E-43
(PID.TID 0000.0001) %MON trcstat_ptracer82_mean       =   5.2116287334031E-07
(PID.TID 0000.0001) %MON trcstat_ptracer82_sd         =   5.2349236673261E-06
(PID.TID 0000.0001) %MON trcstat_ptracer82_del2       =   4.5905691373684E-08
(PID.TID 0000.0001) %MON trcstat_ptracer83_max        =   2.1278208137485E-02
(PID.TID 0000.0001) %MON trcstat_ptracer83_min        =   2.1640416256285E-35
(PID.TID 0000.0001) %MON trcstat_ptracer83_mean       =   1.3428038186898E-04
(PID.TID 0000.0001) %MON trcstat_ptracer83_sd         =   8.4192328965731E-04
(PID.TID 0000.0001) %MON trcstat_ptracer83_del2       =   4.9452679048394E-06
(PID.TID 0000.0001) %MON trcstat_ptracer84_max        =   1.9328483494702E-04
(PID.TID 0000.0001) %MON trcstat_ptracer84_min        =  -3.5834620386862E-28
(PID.TID 0000.0001) %MON trcstat_ptracer84_mean       =   5.4045014566116E-07
(PID.TID 0000.0001) %MON trcstat_ptracer84_sd         =   6.6157680679309E-06
(PID.TID 0000.0001) %MON trcstat_ptracer84_del2       =   7.2514907832178E-08
(PID.TID 0000.0001) %MON trcstat_ptracer85_max        =   5.5969036785022E-05
(PID.TID 0000.0001) %MON trcstat_ptracer85_min        =   8.4297355964080E-51
(PID.TID 0000.0001) %MON trcstat_ptracer85_mean       =   1.2537222034321E-07
(PID.TID 0000.0001) %MON trcstat_ptracer85_sd         =   1.8007988776488E-06
(PID.TID 0000.0001) %MON trcstat_ptracer85_del2       =   4.5195246182996E-08
(PID.TID 0000.0001) %MON trcstat_ptracer86_max        =   5.2396286496748E-05
(PID.TID 0000.0001) %MON trcstat_ptracer86_min        =  -2.5760478690319E-17
(PID.TID 0000.0001) %MON trcstat_ptracer86_mean       =   1.0603095631400E-07
(PID.TID 0000.0001) %MON trcstat_ptracer86_sd         =   1.6566376867421E-06
(PID.TID 0000.0001) %MON trcstat_ptracer86_del2       =   4.6221061277335E-08
(PID.TID 0000.0001) %MON trcstat_ptracer87_max        =   5.5967341051025E-05
(PID.TID 0000.0001) %MON trcstat_ptracer87_min        =  -1.8778578204708E-18
(PID.TID 0000.0001) %MON trcstat_ptracer87_mean       =   1.2481771414366E-07
(PID.TID 0000.0001) %MON trcstat_ptracer87_sd         =   1.8007065660074E-06
(PID.TID 0000.0001) %MON trcstat_ptracer87_del2       =   4.5195802664309E-08
(PID.TID 0000.0001) %MON trcstat_ptracer88_max        =   5.5967341051799E-05
(PID.TID 0000.0001) %MON trcstat_ptracer88_min        =  -1.1355362096727E-18
(PID.TID 0000.0001) %MON trcstat_ptracer88_mean       =   1.2481771427484E-07
(PID.TID 0000.0001) %MON trcstat_ptracer88_sd         =   1.8007065660530E-06
(PID.TID 0000.0001) %MON trcstat_ptracer88_del2       =   4.5195802663834E-08
(PID.TID 0000.0001) %MON trcstat_ptracer89_max        =   6.3253614802293E-02
(PID.TID 0000.0001) %MON trcstat_ptracer89_min        =   4.6145768197675E-30
(PID.TID 0000.0001) %MON trcstat_ptracer89_mean       =   3.6869203659622E-03
(PID.TID 0000.0001) %MON trcstat_ptracer89_sd         =   7.9965596774946E-03
(PID.TID 0000.0001) %MON trcstat_ptracer89_del2       =   2.9991969226174E-05
(PID.TID 0000.0001) %MON trcstat_ptracer90_max        =   5.4071298461263E-05
(PID.TID 0000.0001) %MON trcstat_ptracer90_min        =  -1.3589440172057E-18
(PID.TID 0000.0001) %MON trcstat_ptracer90_mean       =   1.1573431342726E-07
(PID.TID 0000.0001) %MON trcstat_ptracer90_sd         =   1.7511551703448E-06
(PID.TID 0000.0001) %MON trcstat_ptracer90_del2       =   4.5374921134302E-08
(PID.TID 0000.0001) %MON trcstat_ptracer91_max        =   2.4243020633252E-04
(PID.TID 0000.0001) %MON trcstat_ptracer91_min        =   2.3583501536367E-24
(PID.TID 0000.0001) %MON trcstat_ptracer91_mean       =   5.5185389320899E-07
(PID.TID 0000.0001) %MON trcstat_ptracer91_sd         =   7.1129266825854E-06
(PID.TID 0000.0001) %MON trcstat_ptracer91_del2       =   9.8082411535469E-08
(PID.TID 0000.0001) %MON trcstat_ptracer92_max        =   3.2867993405036E-04
(PID.TID 0000.0001) %MON trcstat_ptracer92_min        =   8.9658367856407E-43
(PID.TID 0000.0001) %MON trcstat_ptracer92_mean       =   1.6597874258335E-06
(PID.TID 0000.0001) %MON trcstat_ptracer92_sd         =   1.3707700795877E-05
(PID.TID 0000.0001) %MON trcstat_ptracer92_del2       =   1.0216182530560E-07
(PID.TID 0000.0001) %MON trcstat_ptracer93_max        =   7.4169475301709E-03
(PID.TID 0000.0001) %MON trcstat_ptracer93_min        =   3.4056393625329E-33
(PID.TID 0000.0001) %MON trcstat_ptracer93_mean       =   1.0795519839192E-04
(PID.TID 0000.0001) %MON trcstat_ptracer93_sd         =   4.2810631265590E-04
(PID.TID 0000.0001) %MON trcstat_ptracer93_del2       =   3.4264606128204E-06
(PID.TID 0000.0001) %MON trcstat_ptracer94_max        =   5.2396292805079E-05
(PID.TID 0000.0001) %MON trcstat_ptracer94_min        =   1.2411626328379E-28
(PID.TID 0000.0001) %MON trcstat_ptracer94_mean       =   1.0603214250483E-07
(PID.TID 0000.0001) %MON trcstat_ptracer94_sd         =   1.6566380297786E-06
(PID.TID 0000.0001) %MON trcstat_ptracer94_del2       =   4.6221059129716E-08
(PID.TID 0000.0001) %MON trcstat_ptracer95_max        =   5.5967341051772E-05
(PID.TID 0000.0001) %MON trcstat_ptracer95_min        =  -4.2349792754670E-18
(PID.TID 0000.0001) %MON trcstat_ptracer95_mean       =   1.2481771414570E-07
(PID.TID 0000.0001) %MON trcstat_ptracer95_sd         =   1.8007065660598E-06
(PID.TID 0000.0001) %MON trcstat_ptracer95_del2       =   4.5195802663841E-08
(PID.TID 0000.0001) %MON trcstat_ptracer96_max        =   5.2396286496002E-05
(PID.TID 0000.0001) %MON trcstat_ptracer96_min        =  -2.6881575646729E-17
(PID.TID 0000.0001) %MON trcstat_ptracer96_mean       =   1.0603095631177E-07
(PID.TID 0000.0001) %MON trcstat_ptracer96_sd         =   1.6566376867103E-06
(PID.TID 0000.0001) %MON trcstat_ptracer96_del2       =   4.6221061277636E-08
(PID.TID 0000.0001) %MON trcstat_ptracer97_max        =   8.1482765193222E-04
(PID.TID 0000.0001) %MON trcstat_ptracer97_min        =   1.0000000000689E-50
(PID.TID 0000.0001) %MON trcstat_ptracer97_mean       =   1.5817366575568E-06
(PID.TID 0000.0001) %MON trcstat_ptracer97_sd         =   1.5915472492168E-05
(PID.TID 0000.0001) %MON trcstat_ptracer97_del2       =   1.3359243823473E-07
(PID.TID 0000.0001) %MON trcstat_ptracer98_max        =   7.3771598725597E-05
(PID.TID 0000.0001) %MON trcstat_ptracer98_min        =  -1.0142747192501E-23
(PID.TID 0000.0001) %MON trcstat_ptracer98_mean       =   2.0549726571049E-07
(PID.TID 0000.0001) %MON trcstat_ptracer98_sd         =   2.8709698892221E-06
(PID.TID 0000.0001) %MON trcstat_ptracer98_del2       =   3.9488984545571E-08
(PID.TID 0000.0001) %MON trcstat_ptracer99_max        =   5.4071298460239E-05
(PID.TID 0000.0001) %MON trcstat_ptracer99_min        =  -9.8862170101568E-22
(PID.TID 0000.0001) %MON trcstat_ptracer99_mean       =   1.1573431370332E-07
(PID.TID 0000.0001) %MON trcstat_ptracer99_sd         =   1.7511551702847E-06
(PID.TID 0000.0001) %MON trcstat_ptracer99_del2       =   4.5374921134577E-08
(PID.TID 0000.0001) // =======================================================
(PID.TID 0000.0001) // End MONITOR ptracers field statistics
(PID.TID 0000.0001) // =======================================================
(PID.TID 0000.0001)  EXF_INTERP_READ: opening file: LEV01_SSS_360x180x12.bin
(PID.TID 0000.0001) EXF_INTERP: file="LEV01_SSS_360x180x12.bin", rec=     2 , x-Per,P.Sym=    T    T
(PID.TID 0000.0001) S.edge (j=-1,0,1) : proc= 2.2 1.1 0.0, yIn=  -90.500000  -90.000000  -89.500000
(PID.TID 0000.0001) N.edge (j=+0,+1,+2) proc= 0.0 1.1 2.2, yIn=   89.500000   90.000000   90.500000
(PID.TID 0000.0001)  EXF_INTERP_READ: opening file: LEV01_SSS_360x180x12.bin
(PID.TID 0000.0001) EXF_INTERP: file="LEV01_SSS_360x180x12.bin", rec=     3 , x-Per,P.Sym=    T    T
(PID.TID 0000.0001) S.edge (j=-1,0,1) : proc= 2.2 1.1 0.0, yIn=  -90.500000  -90.000000  -89.500000
(PID.TID 0000.0001) N.edge (j=+0,+1,+2) proc= 0.0 1.1 2.2, yIn=   89.500000   90.000000   90.500000
(PID.TID 0000.0001)  EXF_INTERP_READ: opening file: RG_u10m99
(PID.TID 0000.0001)  EXF_INTERP_READ: opening file: RG_v10m99
(PID.TID 0000.0001) EXF_INTERP_UV: fileU="RG_u10m99", rec=     1 , x-Per,P.Sym=    T    T
(PID.TID 0000.0001) S.edge (j=-1,0,1) : proc= 2.2 1.1 0.0, yIn=  -91.458000  -90.000000  -88.542000
(PID.TID 0000.0001) N.edge (j=+0,+1,+2) proc= 0.0 1.1 2.2, yIn=   88.542000   90.000000   91.458000
(PID.TID 0000.0001)  EXF_INTERP_READ: opening file: RG_u10m99
(PID.TID 0000.0001)  EXF_INTERP_READ: opening file: RG_v10m99
(PID.TID 0000.0001) EXF_INTERP_UV: fileU="RG_u10m99", rec=     2 , x-Per,P.Sym=    T    T
(PID.TID 0000.0001) S.edge (j=-1,0,1) : proc= 2.2 1.1 0.0, yIn=  -91.458000  -90.000000  -88.542000
(PID.TID 0000.0001) N.edge (j=+0,+1,+2) proc= 0.0 1.1 2.2, yIn=   88.542000   90.000000   91.458000
(PID.TID 0000.0001)  EXF_INTERP_READ: opening file: RG_tmp2m99
(PID.TID 0000.0001) EXF_INTERP: file="RG_tmp2m99", rec=     1 , x-Per,P.Sym=    T    T
(PID.TID 0000.0001) S.edge (j=-1,0,1) : proc= 2.2 1.1 0.0, yIn=  -91.458000  -90.000000  -88.542000
(PID.TID 0000.0001) N.edge (j=+0,+1,+2) proc= 0.0 1.1 2.2, yIn=   88.542000   90.000000   91.458000
(PID.TID 0000.0001)  EXF_INTERP_READ: opening file: RG_tmp2m99
(PID.TID 0000.0001) EXF_INTERP: file="RG_tmp2m99", rec=     2 , x-Per,P.Sym=    T    T
(PID.TID 0000.0001) S.edge (j=-1,0,1) : proc= 2.2 1.1 0.0, yIn=  -91.458000  -90.000000  -88.542000
(PID.TID 0000.0001) N.edge (j=+0,+1,+2) proc= 0.0 1.1 2.2, yIn=   88.542000   90.000000   91.458000
(PID.TID 0000.0001)  EXF_INTERP_READ: opening file: RG_spfh2m99
(PID.TID 0000.0001) EXF_INTERP: file="RG_spfh2m99", rec=     1 , x-Per,P.Sym=    T    T
(PID.TID 0000.0001) S.edge (j=-1,0,1) : proc= 2.2 1.1 0.0, yIn=  -91.458000  -90.000000  -88.542000
(PID.TID 0000.0001) N.edge (j=+0,+1,+2) proc= 0.0 1.1 2.2, yIn=   88.542000   90.000000   91.458000
(PID.TID 0000.0001)  EXF_INTERP_READ: opening file: RG_spfh2m99
(PID.TID 0000.0001) EXF_INTERP: file="RG_spfh2m99", rec=     2 , x-Per,P.Sym=    T    T
(PID.TID 0000.0001) S.edge (j=-1,0,1) : proc= 2.2 1.1 0.0, yIn=  -91.458000  -90.000000  -88.542000
(PID.TID 0000.0001) N.edge (j=+0,+1,+2) proc= 0.0 1.1 2.2, yIn=   88.542000   90.000000   91.458000
(PID.TID 0000.0001)  EXF_INTERP_READ: opening file: RG_rain99
(PID.TID 0000.0001) EXF_INTERP: file="RG_rain99", rec=     1 , x-Per,P.Sym=    T    T
(PID.TID 0000.0001) S.edge (j=-1,0,1) : proc= 2.2 1.1 0.0, yIn=  -91.458000  -90.000000  -88.542000
(PID.TID 0000.0001) N.edge (j=+0,+1,+2) proc= 0.0 1.1 2.2, yIn=   88.542000   90.000000   91.458000
(PID.TID 0000.0001)  EXF_INTERP_READ: opening file: RG_rain99
(PID.TID 0000.0001) EXF_INTERP: file="RG_rain99", rec=     2 , x-Per,P.Sym=    T    T
(PID.TID 0000.0001) S.edge (j=-1,0,1) : proc= 2.2 1.1 0.0, yIn=  -91.458000  -90.000000  -88.542000
(PID.TID 0000.0001) N.edge (j=+0,+1,+2) proc= 0.0 1.1 2.2, yIn=   88.542000   90.000000   91.458000
(PID.TID 0000.0001)  EXF_INTERP_READ: opening file: RG_dsw99
(PID.TID 0000.0001) EXF_INTERP: file="RG_dsw99", rec=     1 , x-Per,P.Sym=    T    T
(PID.TID 0000.0001) S.edge (j=-1,0,1) : proc= 2.2 1.1 0.0, yIn=  -91.458000  -90.000000  -88.542000
(PID.TID 0000.0001) N.edge (j=+0,+1,+2) proc= 0.0 1.1 2.2, yIn=   88.542000   90.000000   91.458000
(PID.TID 0000.0001)  EXF_INTERP_READ: opening file: RG_dsw99
(PID.TID 0000.0001) EXF_INTERP: file="RG_dsw99", rec=     2 , x-Per,P.Sym=    T    T
(PID.TID 0000.0001) S.edge (j=-1,0,1) : proc= 2.2 1.1 0.0, yIn=  -91.458000  -90.000000  -88.542000
(PID.TID 0000.0001) N.edge (j=+0,+1,+2) proc= 0.0 1.1 2.2, yIn=   88.542000   90.000000   91.458000
(PID.TID 0000.0001)  EXF_INTERP_READ: opening file: RG_dlw99
(PID.TID 0000.0001) EXF_INTERP: file="RG_dlw99", rec=     1 , x-Per,P.Sym=    T    T
(PID.TID 0000.0001) S.edge (j=-1,0,1) : proc= 2.2 1.1 0.0, yIn=  -91.458000  -90.000000  -88.542000
(PID.TID 0000.0001) N.edge (j=+0,+1,+2) proc= 0.0 1.1 2.2, yIn=   88.542000   90.000000   91.458000
(PID.TID 0000.0001)  EXF_INTERP_READ: opening file: RG_dlw99
(PID.TID 0000.0001) EXF_INTERP: file="RG_dlw99", rec=     2 , x-Per,P.Sym=    T    T
(PID.TID 0000.0001) S.edge (j=-1,0,1) : proc= 2.2 1.1 0.0, yIn=  -91.458000  -90.000000  -88.542000
(PID.TID 0000.0001) N.edge (j=+0,+1,+2) proc= 0.0 1.1 2.2, yIn=   88.542000   90.000000   91.458000
(PID.TID 0000.0001)  EXF_INTERP_READ: opening file: runoff-360x180x12.bin
(PID.TID 0000.0001) EXF_INTERP: file="runoff-360x180x12.bin", rec=     2 , x-Per,P.Sym=    T    T
(PID.TID 0000.0001) S.edge (j=-1,0,1) : proc= 2.2 1.1 0.0, yIn=  -90.500000  -90.000000  -89.500000
(PID.TID 0000.0001) N.edge (j=+0,+1,+2) proc= 0.0 1.1 2.2, yIn=   89.500000   90.000000   90.500000
(PID.TID 0000.0001)  EXF_INTERP_READ: opening file: runoff-360x180x12.bin
(PID.TID 0000.0001) EXF_INTERP: file="runoff-360x180x12.bin", rec=     3 , x-Per,P.Sym=    T    T
(PID.TID 0000.0001) S.edge (j=-1,0,1) : proc= 2.2 1.1 0.0, yIn=  -90.500000  -90.000000  -89.500000
(PID.TID 0000.0001) N.edge (j=+0,+1,+2) proc= 0.0 1.1 2.2, yIn=   89.500000   90.000000   90.500000
(PID.TID 0000.0001) // =======================================================
(PID.TID 0000.0001) // Begin MONITOR EXF statistics
(PID.TID 0000.0001) // =======================================================
(PID.TID 0000.0001) %MON exf_tsnumber                 =                188388
(PID.TID 0000.0001) %MON exf_time_sec                 =   2.2606560000000E+08
(PID.TID 0000.0001) %MON exf_ustress_max              =   2.9394391776597E-01
(PID.TID 0000.0001) %MON exf_ustress_min              =  -3.1761488519510E-02
(PID.TID 0000.0001) %MON exf_ustress_mean             =   8.5937350050417E-02
(PID.TID 0000.0001) %MON exf_ustress_sd               =   8.1385339580269E-02
(PID.TID 0000.0001) %MON exf_ustress_del2             =   6.5554613890346E-05
(PID.TID 0000.0001) %MON exf_vstress_max              =   1.7334424427601E-01
(PID.TID 0000.0001) %MON exf_vstress_min              =  -2.1185366257223E-01
(PID.TID 0000.0001) %MON exf_vstress_mean             =  -2.3236325630764E-02
(PID.TID 0000.0001) %MON exf_vstress_sd               =   8.3876164517817E-02
(PID.TID 0000.0001) %MON exf_vstress_del2             =   6.1706239331491E-05
(PID.TID 0000.0001) %MON exf_hflux_max                =   6.1541024589328E+01
(PID.TID 0000.0001) %MON exf_hflux_min                =  -1.8300501005522E+02
(PID.TID 0000.0001) %MON exf_hflux_mean               =  -8.1771934264865E+01
(PID.TID 0000.0001) %MON exf_hflux_sd                 =   5.9618160702140E+01
(PID.TID 0000.0001) %MON exf_hflux_del2               =   3.7725242539869E-01
(PID.TID 0000.0001) %MON exf_sflux_max                =   1.4030410288187E-08
(PID.TID 0000.0001) %MON exf_sflux_min                =  -3.1155560795421E-07
(PID.TID 0000.0001) %MON exf_sflux_mean               =  -1.0170357765269E-07
(PID.TID 0000.0001) %MON exf_sflux_sd                 =   7.8656188660322E-08
(PID.TID 0000.0001) %MON exf_sflux_del2               =   1.2285412967581E-10
(PID.TID 0000.0001) %MON exf_uwind_max                =   1.2317190647435E+01
(PID.TID 0000.0001) %MON exf_uwind_min                =  -2.3903590206674E+00
(PID.TID 0000.0001) %MON exf_uwind_mean               =   6.0492167415949E+00
(PID.TID 0000.0001) %MON exf_uwind_sd                 =   3.6622264422298E+00
(PID.TID 0000.0001) %MON exf_uwind_del2               =   5.3353177547235E-02
(PID.TID 0000.0001) %MON exf_vwind_max                =   1.0789716630428E+01
(PID.TID 0000.0001) %MON exf_vwind_min                =  -9.1261856514073E+00
(PID.TID 0000.0001) %MON exf_vwind_mean               =  -1.3315521434182E+00
(PID.TID 0000.0001) %MON exf_vwind_sd                 =   5.5914773814023E+00
(PID.TID 0000.0001) %MON exf_vwind_del2               =   4.9788827979912E-02
(PID.TID 0000.0001) %MON exf_wspeed_max               =   1.4160725157879E+01
(PID.TID 0000.0001) %MON exf_wspeed_min               =   3.8459773364919E+00
(PID.TID 0000.0001) %MON exf_wspeed_mean              =   8.7455992974873E+00
(PID.TID 0000.0001) %MON exf_wspeed_sd                =   2.5606774584325E+00
(PID.TID 0000.0001) %MON exf_wspeed_del2              =   7.2797188189895E-02
(PID.TID 0000.0001) %MON exf_atemp_max                =   2.7988827275952E+02
(PID.TID 0000.0001) %MON exf_atemp_min                =   2.6683249899485E+02
(PID.TID 0000.0001) %MON exf_atemp_mean               =   2.7521584073435E+02
(PID.TID 0000.0001) %MON exf_atemp_sd                 =   2.5892937073678E+00
(PID.TID 0000.0001) %MON exf_atemp_del2               =   1.8775445471134E-02
(PID.TID 0000.0001) %MON exf_aqh_max                  =   6.0824245051497E-03
(PID.TID 0000.0001) %MON exf_aqh_min                  =   2.3838363815138E-03
(PID.TID 0000.0001) %MON exf_aqh_mean                 =   4.3398602863578E-03
(PID.TID 0000.0001) %MON exf_aqh_sd                   =   7.4961998284994E-04
(PID.TID 0000.0001) %MON exf_aqh_del2                 =   2.9513031600970E-05
(PID.TID 0000.0001) %MON exf_lwflux_max               =   8.1704897678893E+01
(PID.TID 0000.0001) %MON exf_lwflux_min               =   6.7007804364509E+00
(PID.TID 0000.0001) %MON exf_lwflux_mean              =   3.8521840858568E+01
(PID.TID 0000.0001) %MON exf_lwflux_sd                =   1.8708438712987E+01
(PID.TID 0000.0001) %MON exf_lwflux_del2              =   2.6747642069133E-01
(PID.TID 0000.0001) %MON exf_precip_max               =   3.1273821905608E-07
(PID.TID 0000.0001) %MON exf_precip_min               =   3.3477852854883E-11
(PID.TID 0000.0001) %MON exf_precip_mean              =   9.8075315917481E-08
(PID.TID 0000.0001) %MON exf_precip_sd                =   7.7738114954624E-08
(PID.TID 0000.0001) %MON exf_precip_del2              =   1.3141098344282E-09
(PID.TID 0000.0001) %MON exf_swflux_max               =  -9.3170662713583E+01
(PID.TID 0000.0001) %MON exf_swflux_min               =  -2.0946293795910E+02
(PID.TID 0000.0001) %MON exf_swflux_mean              =  -1.3996295759359E+02
(PID.TID 0000.0001) %MON exf_swflux_sd                =   2.9093274456611E+01
(PID.TID 0000.0001) %MON exf_swflux_del2              =   3.3765675287610E-02
(PID.TID 0000.0001) %MON exf_evap_max                 =   2.6727244315913E-08
(PID.TID 0000.0001) %MON exf_evap_min                 =  -1.4510406179073E-08
(PID.TID 0000.0001) %MON exf_evap_mean                =   5.0354480822051E-09
(PID.TID 0000.0001) %MON exf_evap_sd                  =   8.7799952520969E-09
(PID.TID 0000.0001) %MON exf_evap_del2                =   8.9452426572480E-11
(PID.TID 0000.0001) %MON exf_swdown_max               =   2.4642698583423E+02
(PID.TID 0000.0001) %MON exf_swdown_min               =   1.0961254436892E+02
(PID.TID 0000.0001) %MON exf_swdown_mean              =   1.6466230305128E+02
(PID.TID 0000.0001) %MON exf_swdown_sd                =   3.4227381713659E+01
(PID.TID 0000.0001) %MON exf_swdown_del2              =   1.0978448001133E+00
(PID.TID 0000.0001) %MON exf_lwdown_max               =   3.0646818022017E+02
(PID.TID 0000.0001) %MON exf_lwdown_min               =   2.4299730831545E+02
(PID.TID 0000.0001) %MON exf_lwdown_mean              =   2.7653909714198E+02
(PID.TID 0000.0001) %MON exf_lwdown_sd                =   1.4929120997290E+01
(PID.TID 0000.0001) %MON exf_lwdown_del2              =   2.0802790075977E+00
(PID.TID 0000.0001) %MON exf_runoff_max               =   7.4975011851692E-08
(PID.TID 0000.0001) %MON exf_runoff_min               =   0.0000000000000E+00
(PID.TID 0000.0001) %MON exf_runoff_mean              =   8.6637098174130E-09
(PID.TID 0000.0001) %MON exf_runoff_sd                =   1.9487938307725E-08
(PID.TID 0000.0001) %MON exf_runoff_del2              =   6.8076164467882E-11
(PID.TID 0000.0001) %MON exf_climsss_max              =   3.4374380765676E+01
(PID.TID 0000.0001) %MON exf_climsss_min              =   2.9702162078916E+00
(PID.TID 0000.0001) %MON exf_climsss_mean             =   1.2720684664496E+01
(PID.TID 0000.0001) %MON exf_climsss_sd               =   1.0010476552237E+01
(PID.TID 0000.0001) %MON exf_climsss_del2             =   3.2300386746811E-03
(PID.TID 0000.0001) // =======================================================
(PID.TID 0000.0001) // End MONITOR EXF statistics
(PID.TID 0000.0001) // =======================================================
(PID.TID 0000.0001) S/R DARWIN_FIELDS_LOAD: Reading forcing data  2.260656000000E+08     188388
(PID.TID 0000.0001)  MDS_READ_FIELD: opening global file: Fe_const_76x72_12.bin
(PID.TID 0000.0001)  MDS_READ_FIELD: opening global file: Fe_const_76x72_12.bin
 SEAICE_LSR: Residual Initial ipass,Uice,Vice=    1  1.17054623E-01  8.78956083E-02
 SEAICE_LSR: Residual FrDrift U_fd,V_fd=  3.26579171E+02  2.28489913E+02
 SEAICE_LSR (ipass=   1) iters,dU,Resid=    48  8.33516734E-05  1.67417353E-04
 SEAICE_LSR (ipass=   1) iters,dV,Resid=    52  9.45303482E-05  2.28371301E-03
 SEAICE_LSR: Residual Initial ipass,Uice,Vice=    2  3.02840034E-02  3.46589366E-02
 SEAICE_LSR: Residual FrDrift U_fd,V_fd=  3.26371704E+02  2.30323128E+02
 SEAICE_LSR (ipass=   2) iters,dU,Resid=    42  9.30177561E-05  1.81518588E-04
 SEAICE_LSR (ipass=   2) iters,dV,Resid=    42  9.47774010E-05  2.50377856E-03
(PID.TID 0000.0001) SOLVE_FOR_PRESSURE: putPmEinXvector =    F
 cg2d: Sum(rhs),rhsMax =  -6.12703270473218E+02  2.78614142115000E-01
(PID.TID 0000.0001)      cg2d_init_res =   1.53884491395922E-01
(PID.TID 0000.0001)      cg2d_iters(min,last) =      -1      20
(PID.TID 0000.0001)      cg2d_last_res =   5.39144263784102E-06
(PID.TID 0000.0001) // =======================================================
(PID.TID 0000.0001) // Begin MONITOR dynamic field statistics
(PID.TID 0000.0001) // =======================================================
(PID.TID 0000.0001) %MON time_tsnumber                =                188389
(PID.TID 0000.0001) %MON time_secondsf                =   2.2606680000000E+08
(PID.TID 0000.0001) %MON dynstat_eta_max              =   6.6739077337177E-01
(PID.TID 0000.0001) %MON dynstat_eta_min              =   3.0675525448124E-02
(PID.TID 0000.0001) %MON dynstat_eta_mean             =   3.7231676890311E-01
(PID.TID 0000.0001) %MON dynstat_eta_sd               =   1.5399183816944E-01
(PID.TID 0000.0001) %MON dynstat_eta_del2             =   3.3763504924091E-04
(PID.TID 0000.0001) %MON dynstat_uvel_max             =   4.0427657839207E-01
(PID.TID 0000.0001) %MON dynstat_uvel_min             =  -3.3655196722430E-01
(PID.TID 0000.0001) %MON dynstat_uvel_mean            =   6.7439972070300E-03
(PID.TID 0000.0001) %MON dynstat_uvel_sd              =   6.1690881997097E-02
(PID.TID 0000.0001) %MON dynstat_uvel_del2            =   9.6636766508009E-04
(PID.TID 0000.0001) %MON dynstat_vvel_max             =   2.6916656574659E-01
(PID.TID 0000.0001) %MON dynstat_vvel_min             =  -4.5081903394335E-01
(PID.TID 0000.0001) %MON dynstat_vvel_mean            =   2.0504005403250E-03
(PID.TID 0000.0001) %MON dynstat_vvel_sd              =   6.4368072125081E-02
(PID.TID 0000.0001) %MON dynstat_vvel_del2            =   1.1524019503824E-03
(PID.TID 0000.0001) %MON dynstat_wvel_max             =   4.9719185139671E-04
(PID.TID 0000.0001) %MON dynstat_wvel_min             =  -5.0624886606828E-04
(PID.TID 0000.0001) %MON dynstat_wvel_mean            =  -2.6297873252594E-06
(PID.TID 0000.0001) %MON dynstat_wvel_sd              =   7.5567591105548E-05
(PID.TID 0000.0001) %MON dynstat_wvel_del2            =   2.0394041233718E-06
(PID.TID 0000.0001) %MON dynstat_theta_max            =   7.9699950461211E+00
(PID.TID 0000.0001) %MON dynstat_theta_min            =  -1.6134226791279E+00
(PID.TID 0000.0001) %MON dynstat_theta_mean           =   3.7801369357867E+00
(PID.TID 0000.0001) %MON dynstat_theta_sd             =   2.2016206706930E+00
(PID.TID 0000.0001) %MON dynstat_theta_del2           =   6.0389194781325E-03
(PID.TID 0000.0001) %MON dynstat_salt_max             =   3.4927789890300E+01
(PID.TID 0000.0001) %MON dynstat_salt_min             =   5.6522079502424E+00
(PID.TID 0000.0001) %MON dynstat_salt_mean            =   1.5353300320654E+01
(PID.TID 0000.0001) %MON dynstat_salt_sd              =   1.1951757719852E+01
(PID.TID 0000.0001) %MON dynstat_salt_del2            =   3.5920630840357E-03
(PID.TID 0000.0001) %MON forcing_qnet_max             =   4.2608809865052E+02
(PID.TID 0000.0001) %MON forcing_qnet_min             =  -1.8300501005522E+02
(PID.TID 0000.0001) %MON forcing_qnet_mean            =  -6.4364034466141E+01
(PID.TID 0000.0001) %MON forcing_qnet_sd              =   6.3270439403057E+01
(PID.TID 0000.0001) %MON forcing_qnet_del2            =   1.6067867761529E+00
(PID.TID 0000.0001) %MON forcing_qsw_max              =   0.0000000000000E+00
(PID.TID 0000.0001) %MON forcing_qsw_min              =  -2.0946293795910E+02
(PID.TID 0000.0001) %MON forcing_qsw_mean             =  -1.1357354970359E+02
(PID.TID 0000.0001) %MON forcing_qsw_sd               =   6.3108938443044E+01
(PID.TID 0000.0001) %MON forcing_qsw_del2             =   5.2356272881948E-01
(PID.TID 0000.0001) %MON forcing_empmr_max            =   4.4103518592871E-05
(PID.TID 0000.0001) %MON forcing_empmr_min            =  -1.6106471196477E-03
(PID.TID 0000.0001) %MON forcing_empmr_mean           =  -1.0311617964860E-04
(PID.TID 0000.0001) %MON forcing_empmr_sd             =   1.1774771410081E-04
(PID.TID 0000.0001) %MON forcing_empmr_del2           =   5.0219648308642E-06
(PID.TID 0000.0001) %MON forcing_fu_max               =   2.9264759531240E-01
(PID.TID 0000.0001) %MON forcing_fu_min               =  -8.9097431622272E-02
(PID.TID 0000.0001) %MON forcing_fu_mean              =   8.6474171419049E-02
(PID.TID 0000.0001) %MON forcing_fu_sd                =   8.4852611456677E-02
(PID.TID 0000.0001) %MON forcing_fu_del2              =   3.0552332311353E-04
(PID.TID 0000.0001) %MON forcing_fv_max               =   1.6024261412379E-01
(PID.TID 0000.0001) %MON forcing_fv_min               =  -2.1173279725226E-01
(PID.TID 0000.0001) %MON forcing_fv_mean              =  -3.6188983438534E-02
(PID.TID 0000.0001) %MON forcing_fv_sd                =   6.9804120279281E-02
(PID.TID 0000.0001) %MON forcing_fv_del2              =   3.1376901788290E-04
(PID.TID 0000.0001) %MON advcfl_uvel_max              =   2.3209290608539E-02
(PID.TID 0000.0001) %MON advcfl_vvel_max              =   3.3115243422525E-02
(PID.TID 0000.0001) %MON advcfl_wvel_max              =   5.9663022167605E-02
(PID.TID 0000.0001) %MON advcfl_W_hf_max              =   5.9663022167605E-02
(PID.TID 0000.0001) %MON pe_b_mean                    =   1.3735225265299E-02
(PID.TID 0000.0001) %MON ke_max                       =   1.1040936887650E-01
(PID.TID 0000.0001) %MON ke_mean                      =   3.2314593333336E-03
(PID.TID 0000.0001) %MON ke_vol                       =   2.7634533915294E+13
(PID.TID 0000.0001) %MON vort_r_min                   =  -3.7118806268861E-05
(PID.TID 0000.0001) %MON vort_r_max                   =   3.2860433362046E-05
(PID.TID 0000.0001) %MON vort_a_mean                  =   1.2397552904774E-04
(PID.TID 0000.0001) %MON vort_a_sd                    =   6.2859746485534E-06
(PID.TID 0000.0001) %MON vort_p_mean                  =   1.7325641031781E-04
(PID.TID 0000.0001) %MON vort_p_sd                    =   1.0960951784805E-04
(PID.TID 0000.0001) %MON surfExpan_theta_mean         =  -6.9516215916175E-07
(PID.TID 0000.0001) %MON surfExpan_salt_mean          =   1.3599550467716E-06
(PID.TID 0000.0001) // =======================================================
(PID.TID 0000.0001) // End MONITOR dynamic field statistics
(PID.TID 0000.0001) // =======================================================
(PID.TID 0000.0001) // =======================================================
(PID.TID 0000.0001) // Begin OBCS MONITOR field statistics
(PID.TID 0000.0001) // =======================================================
(PID.TID 0000.0001) %MON obc_W_uVel_max               =   7.0330339349901E-02
(PID.TID 0000.0001) %MON obc_W_uVel_min               =  -1.2529555313121E-02
(PID.TID 0000.0001) %MON obc_W_uVel_mean              =   2.2512043378253E-02
(PID.TID 0000.0001) %MON obc_W_uVel_sd                =   2.5884347187124E-02
(PID.TID 0000.0001) %MON obc_W_uVel_Int               =   4.7346263828588E+04
(PID.TID 0000.0001) %MON obc_N_vVel_max               =   1.8571503468550E-01
(PID.TID 0000.0001) %MON obc_N_vVel_min               =  -2.5383893785174E-01
(PID.TID 0000.0001) %MON obc_N_vVel_mean              =   1.5196918494238E-03
(PID.TID 0000.0001) %MON obc_N_vVel_sd                =   8.5437537050353E-02
(PID.TID 0000.0001) %MON obc_N_vVel_Int               =   4.7676542931689E+04
(PID.TID 0000.0001) // =======================================================
(PID.TID 0000.0001) // End OBCS MONITOR field statistics
(PID.TID 0000.0001) // =======================================================
(PID.TID 0000.0001) // =======================================================
(PID.TID 0000.0001) // Begin MONITOR SEAICE statistics
(PID.TID 0000.0001) // =======================================================
(PID.TID 0000.0001) %MON seaice_tsnumber              =                188389
(PID.TID 0000.0001) %MON seaice_time_sec              =   2.2606680000000E+08
(PID.TID 0000.0001) %MON seaice_uice_max              =   5.8515150494270E-01
(PID.TID 0000.0001) %MON seaice_uice_min              =  -2.5886001217235E-01
(PID.TID 0000.0001) %MON seaice_uice_mean             =   1.2025880627704E-01
(PID.TID 0000.0001) %MON seaice_uice_sd               =   1.1231224998279E-01
(PID.TID 0000.0001) %MON seaice_uice_del2             =   2.8175574714443E-03
(PID.TID 0000.0001) %MON seaice_vice_max              =   3.7906294251863E-01
(PID.TID 0000.0001) %MON seaice_vice_min              =  -5.8726179613888E-01
(PID.TID 0000.0001) %MON seaice_vice_mean             =  -6.6551239672310E-02
(PID.TID 0000.0001) %MON seaice_vice_sd               =   1.1432497547756E-01
(PID.TID 0000.0001) %MON seaice_vice_del2             =   2.9463470341384E-03
(PID.TID 0000.0001) %MON seaice_area_max              =   1.0000000000000E+00
(PID.TID 0000.0001) %MON seaice_area_min              =   0.0000000000000E+00
(PID.TID 0000.0001) %MON seaice_area_mean             =   2.2612715013108E-01
(PID.TID 0000.0001) %MON seaice_area_sd               =   3.8528175576777E-01
(PID.TID 0000.0001) %MON seaice_area_del2             =   4.4965123179404E-03
(PID.TID 0000.0001) %MON seaice_heff_max              =   1.0116090115476E+00
(PID.TID 0000.0001) %MON seaice_heff_min              =   0.0000000000000E+00
(PID.TID 0000.0001) %MON seaice_heff_mean             =   1.2506971106897E-01
(PID.TID 0000.0001) %MON seaice_heff_sd               =   2.4315272028292E-01
(PID.TID 0000.0001) %MON seaice_heff_del2             =   2.2345045032949E-03
(PID.TID 0000.0001) %MON seaice_hsnow_max             =   2.7600629229774E-01
(PID.TID 0000.0001) %MON seaice_hsnow_min             =   0.0000000000000E+00
(PID.TID 0000.0001) %MON seaice_hsnow_mean            =   3.0769228368943E-02
(PID.TID 0000.0001) %MON seaice_hsnow_sd              =   6.4230782387452E-02
(PID.TID 0000.0001) %MON seaice_hsnow_del2            =   3.7626402237710E-04
(PID.TID 0000.0001) %MON seaice_sitracer01_max        =   1.2000000000000E+03
(PID.TID 0000.0001) %MON seaice_sitracer01_min        =   0.0000000000000E+00
(PID.TID 0000.0001) %MON seaice_sitracer01_mean       =   3.4960261201290E+02
(PID.TID 0000.0001) %MON seaice_sitracer01_sd         =   5.4525328801323E+02
(PID.TID 0000.0001) %MON seaice_sitracer01_del2       =   8.7038739919080E+00
(PID.TID 0000.0001) %MON seaice_sitracer02_max        =   1.0000000000000E+00
(PID.TID 0000.0001) %MON seaice_sitracer02_min        =   0.0000000000000E+00
(PID.TID 0000.0001) %MON seaice_sitracer02_mean       =   2.9969507061539E-01
(PID.TID 0000.0001) %MON seaice_sitracer02_sd         =   4.5812436659080E-01
(PID.TID 0000.0001) %MON seaice_sitracer02_del2       =   7.3570984585979E-03
(PID.TID 0000.0001) // =======================================================
(PID.TID 0000.0001) // End MONITOR SEAICE statistics
(PID.TID 0000.0001) // =======================================================
(PID.TID 0000.0001) // =======================================================
(PID.TID 0000.0001) // Begin MONITOR ptracer field statistics
(PID.TID 0000.0001) // =======================================================
(PID.TID 0000.0001) %MON trcstat_ptracer01_max        =   4.3206435651439E+00
(PID.TID 0000.0001) %MON trcstat_ptracer01_min        =   3.7999514852100E-02
(PID.TID 0000.0001) %MON trcstat_ptracer01_mean       =   5.9105006267805E-01
(PID.TID 0000.0001) %MON trcstat_ptracer01_sd         =   5.1754466647689E-01
(PID.TID 0000.0001) %MON trcstat_ptracer01_del2       =   8.6367139923034E-04
(PID.TID 0000.0001) %MON trcstat_ptracer02_max        =   4.4160932384588E+01
(PID.TID 0000.0001) %MON trcstat_ptracer02_min        =   1.4930485379834E-02
(PID.TID 0000.0001) %MON trcstat_ptracer02_mean       =   4.5817299800636E+00
(PID.TID 0000.0001) %MON trcstat_ptracer02_sd         =   6.6983685233431E+00
(PID.TID 0000.0001) %MON trcstat_ptracer02_del2       =   1.2511075424431E-02
(PID.TID 0000.0001) %MON trcstat_ptracer03_max        =   1.3876604593124E-03
(PID.TID 0000.0001) %MON trcstat_ptracer03_min        =   5.8883013938815E-04
(PID.TID 0000.0001) %MON trcstat_ptracer03_mean       =   1.0854240798374E-03
(PID.TID 0000.0001) %MON trcstat_ptracer03_sd         =   1.4542936144249E-04
(PID.TID 0000.0001) %MON trcstat_ptracer03_del2       =   4.5504367727172E-07
(PID.TID 0000.0001) %MON trcstat_ptracer04_max        =   1.5669735835520E+02
(PID.TID 0000.0001) %MON trcstat_ptracer04_min        =   6.2855933577144E-02
(PID.TID 0000.0001) %MON trcstat_ptracer04_mean       =   1.4711764707132E+01
(PID.TID 0000.0001) %MON trcstat_ptracer04_sd         =   1.7084679558100E+01
(PID.TID 0000.0001) %MON trcstat_ptracer04_del2       =   2.7914381325432E-02
(PID.TID 0000.0001) %MON trcstat_ptracer05_max        =   2.8327734124398E-01
(PID.TID 0000.0001) %MON trcstat_ptracer05_min        =   8.3393457011579E-08
(PID.TID 0000.0001) %MON trcstat_ptracer05_mean       =   5.8395265125388E-02
(PID.TID 0000.0001) %MON trcstat_ptracer05_sd         =   5.6904021901297E-02
(PID.TID 0000.0001) %MON trcstat_ptracer05_del2       =   1.4706913375092E-04
(PID.TID 0000.0001) %MON trcstat_ptracer06_max        =   4.5324374599037E+00
(PID.TID 0000.0001) %MON trcstat_ptracer06_min        =   1.3342953121853E-06
(PID.TID 0000.0001) %MON trcstat_ptracer06_mean       =   9.3432424200622E-01
(PID.TID 0000.0001) %MON trcstat_ptracer06_sd         =   9.1046435042075E-01
(PID.TID 0000.0001) %MON trcstat_ptracer06_del2       =   2.3531061400148E-03
(PID.TID 0000.0001) %MON trcstat_ptracer07_max        =   2.8327734124398E-04
(PID.TID 0000.0001) %MON trcstat_ptracer07_min        =   8.3393457011581E-11
(PID.TID 0000.0001) %MON trcstat_ptracer07_mean       =   5.8395265113627E-05
(PID.TID 0000.0001) %MON trcstat_ptracer07_sd         =   5.6904021955940E-05
(PID.TID 0000.0001) %MON trcstat_ptracer07_del2       =   1.4706913416371E-07
(PID.TID 0000.0001) %MON trcstat_ptracer08_max        =   6.9689732724416E-03
(PID.TID 0000.0001) %MON trcstat_ptracer08_min        =   6.8560446412840E-33
(PID.TID 0000.0001) %MON trcstat_ptracer08_mean       =   4.7062465234339E-04
(PID.TID 0000.0001) %MON trcstat_ptracer08_sd         =   1.1053491721914E-03
(PID.TID 0000.0001) %MON trcstat_ptracer08_del2       =   3.5988071710911E-06
(PID.TID 0000.0001) %MON trcstat_ptracer09_max        =   1.1150357235907E-01
(PID.TID 0000.0001) %MON trcstat_ptracer09_min        =   1.0969671426054E-31
(PID.TID 0000.0001) %MON trcstat_ptracer09_mean       =   7.5299944374942E-03
(PID.TID 0000.0001) %MON trcstat_ptracer09_sd         =   1.7685586755062E-02
(PID.TID 0000.0001) %MON trcstat_ptracer09_del2       =   5.7580914737458E-05
(PID.TID 0000.0001) %MON trcstat_ptracer10_max        =   6.9689732739678E-06
(PID.TID 0000.0001) %MON trcstat_ptracer10_min        =   6.8560446413125E-36
(PID.TID 0000.0001) %MON trcstat_ptracer10_mean       =   4.7062465310817E-07
(PID.TID 0000.0001) %MON trcstat_ptracer10_sd         =   1.1053491737089E-06
(PID.TID 0000.0001) %MON trcstat_ptracer10_del2       =   3.5988071764347E-09
(PID.TID 0000.0001) %MON trcstat_ptracer11_max        =   8.8795592363052E-03
(PID.TID 0000.0001) %MON trcstat_ptracer11_min        =   1.9293533573215E-32
(PID.TID 0000.0001) %MON trcstat_ptracer11_mean       =   3.4626775182570E-04
(PID.TID 0000.0001) %MON trcstat_ptracer11_sd         =   1.3402533315361E-03
(PID.TID 0000.0001) %MON trcstat_ptracer11_del2       =   4.6192617744415E-06
(PID.TID 0000.0001) %MON trcstat_ptracer12_max        =   8.4348342033996E-02
(PID.TID 0000.0001) %MON trcstat_ptracer12_min        =   8.7790532088968E-23
(PID.TID 0000.0001) %MON trcstat_ptracer12_mean       =   1.6990283901786E-03
(PID.TID 0000.0001) %MON trcstat_ptracer12_sd         =   7.4844798920927E-03
(PID.TID 0000.0001) %MON trcstat_ptracer12_del2       =   3.2202696593448E-05
(PID.TID 0000.0001) %MON trcstat_ptracer13_max        =   1.3495734725439E+00
(PID.TID 0000.0001) %MON trcstat_ptracer13_min        =   1.4046485134235E-21
(PID.TID 0000.0001) %MON trcstat_ptracer13_mean       =   2.7184454242858E-02
(PID.TID 0000.0001) %MON trcstat_ptracer13_sd         =   1.1975167827348E-01
(PID.TID 0000.0001) %MON trcstat_ptracer13_del2       =   5.1524314549517E-04
(PID.TID 0000.0001) %MON trcstat_ptracer14_max        =   8.4348342086052E-05
(PID.TID 0000.0001) %MON trcstat_ptracer14_min        =   8.7790532088954E-26
(PID.TID 0000.0001) %MON trcstat_ptracer14_mean       =   1.6990283914828E-06
(PID.TID 0000.0001) %MON trcstat_ptracer14_sd         =   7.4844798956210E-06
(PID.TID 0000.0001) %MON trcstat_ptracer14_del2       =   3.2202696616431E-08
(PID.TID 0000.0001) %MON trcstat_ptracer15_max        =   9.5139090034235E-01
(PID.TID 0000.0001) %MON trcstat_ptracer15_min        =   9.4298810675043E-22
(PID.TID 0000.0001) %MON trcstat_ptracer15_mean       =   1.8553641140789E-02
(PID.TID 0000.0001) %MON trcstat_ptracer15_sd         =   9.2653836619021E-02
(PID.TID 0000.0001) %MON trcstat_ptracer15_del2       =   4.8246126029593E-04
(PID.TID 0000.0001) %MON trcstat_ptracer16_max        =   1.0073423297271E+00
(PID.TID 0000.0001) %MON trcstat_ptracer16_min        =   3.3605929419738E-09
(PID.TID 0000.0001) %MON trcstat_ptracer16_mean       =   2.0443818564774E-02
(PID.TID 0000.0001) %MON trcstat_ptracer16_sd         =   4.9044222885436E-02
(PID.TID 0000.0001) %MON trcstat_ptracer16_del2       =   2.9724769655559E-04
(PID.TID 0000.0001) %MON trcstat_ptracer17_max        =   1.6117477275634E+01
(PID.TID 0000.0001) %MON trcstat_ptracer17_min        =   5.3769487071581E-08
(PID.TID 0000.0001) %MON trcstat_ptracer17_mean       =   3.2710109703638E-01
(PID.TID 0000.0001) %MON trcstat_ptracer17_sd         =   7.8470756616698E-01
(PID.TID 0000.0001) %MON trcstat_ptracer17_del2       =   4.7559631448895E-03
(PID.TID 0000.0001) %MON trcstat_ptracer18_max        =   1.0073423297271E-03
(PID.TID 0000.0001) %MON trcstat_ptracer18_min        =   3.3605929419738E-12
(PID.TID 0000.0001) %MON trcstat_ptracer18_mean       =   2.0443818569384E-05
(PID.TID 0000.0001) %MON trcstat_ptracer18_sd         =   4.9044222882395E-05
(PID.TID 0000.0001) %MON trcstat_ptracer18_del2       =   2.9724769678310E-07
(PID.TID 0000.0001) %MON trcstat_ptracer19_max        =   3.0560054548873E+02
(PID.TID 0000.0001) %MON trcstat_ptracer19_min        =   9.1633977542966E-08
(PID.TID 0000.0001) %MON trcstat_ptracer19_mean       =   2.2925807577341E+00
(PID.TID 0000.0001) %MON trcstat_ptracer19_sd         =   1.2520157759035E+01
(PID.TID 0000.0001) %MON trcstat_ptracer19_del2       =   5.3786791902283E-02
(PID.TID 0000.0001) %MON trcstat_ptracer20_max        =   2.4305137575841E-01
(PID.TID 0000.0001) %MON trcstat_ptracer20_min        =   2.2577044577390E-07
(PID.TID 0000.0001) %MON trcstat_ptracer20_mean       =   1.3449360080332E-02
(PID.TID 0000.0001) %MON trcstat_ptracer20_sd         =   1.7619956620531E-02
(PID.TID 0000.0001) %MON trcstat_ptracer20_del2       =   8.4223036719276E-04
(PID.TID 0000.0001) %MON trcstat_ptracer21_max        =   2.3339676617149E+00
(PID.TID 0000.0001) %MON trcstat_ptracer21_min        =   3.0205735866788E-05
(PID.TID 0000.0001) %MON trcstat_ptracer21_mean       =   1.5995987090304E-01
(PID.TID 0000.0001) %MON trcstat_ptracer21_sd         =   1.8964186072443E-01
(PID.TID 0000.0001) %MON trcstat_ptracer21_del2       =   7.1034332775015E-04
(PID.TID 0000.0001) %MON trcstat_ptracer22_max        =   5.5991606297320E-05
(PID.TID 0000.0001) %MON trcstat_ptracer22_min        =  -2.1068568893064E-19
(PID.TID 0000.0001) %MON trcstat_ptracer22_mean       =   1.2493175527323E-07
(PID.TID 0000.0001) %MON trcstat_ptracer22_sd         =   1.8024166806731E-06
(PID.TID 0000.0001) %MON trcstat_ptracer22_del2       =   4.5234743159517E-08
(PID.TID 0000.0001) %MON trcstat_ptracer23_max        =   5.2613912587824E-04
(PID.TID 0000.0001) %MON trcstat_ptracer23_min        =  -2.2601834254207E-24
(PID.TID 0000.0001) %MON trcstat_ptracer23_mean       =   7.3555144332788E-06
(PID.TID 0000.0001) %MON trcstat_ptracer23_sd         =   4.0046562847506E-05
(PID.TID 0000.0001) %MON trcstat_ptracer23_del2       =   1.9055036064620E-07
(PID.TID 0000.0001) %MON trcstat_ptracer24_max        =   5.5991612423001E-05
(PID.TID 0000.0001) %MON trcstat_ptracer24_min        =   5.7063431868880E-51
(PID.TID 0000.0001) %MON trcstat_ptracer24_mean       =   1.2506301055591E-07
(PID.TID 0000.0001) %MON trcstat_ptracer24_sd         =   1.8024075979462E-06
(PID.TID 0000.0001) %MON trcstat_ptracer24_del2       =   4.5234753234592E-08
(PID.TID 0000.0001) %MON trcstat_ptracer25_max        =   1.4218866554053E-04
(PID.TID 0000.0001) %MON trcstat_ptracer25_min        =   8.0653225601920E-34
(PID.TID 0000.0001) %MON trcstat_ptracer25_mean       =   2.6888637778361E-06
(PID.TID 0000.0001) %MON trcstat_ptracer25_sd         =   1.0784461158788E-05
(PID.TID 0000.0001) %MON trcstat_ptracer25_del2       =   1.0482890992355E-07
(PID.TID 0000.0001) %MON trcstat_ptracer26_max        =   5.2647505357920E-05
(PID.TID 0000.0001) %MON trcstat_ptracer26_min        =  -2.6878181363047E-17
(PID.TID 0000.0001) %MON trcstat_ptracer26_mean       =   1.0652642015404E-07
(PID.TID 0000.0001) %MON trcstat_ptracer26_sd         =   1.6646849662929E-06
(PID.TID 0000.0001) %MON trcstat_ptracer26_del2       =   4.6501769694565E-08
(PID.TID 0000.0001) %MON trcstat_ptracer27_max        =   9.6712666570216E-03
(PID.TID 0000.0001) %MON trcstat_ptracer27_min        =   1.2895098690603E-19
(PID.TID 0000.0001) %MON trcstat_ptracer27_mean       =   2.4638810795387E-04
(PID.TID 0000.0001) %MON trcstat_ptracer27_sd         =   6.7739516423783E-04
(PID.TID 0000.0001) %MON trcstat_ptracer27_del2       =   5.3324488134673E-06
(PID.TID 0000.0001) %MON trcstat_ptracer28_max        =   9.2443348366418E-02
(PID.TID 0000.0001) %MON trcstat_ptracer28_min        =   6.7039063102285E-24
(PID.TID 0000.0001) %MON trcstat_ptracer28_mean       =   1.6197577398783E-03
(PID.TID 0000.0001) %MON trcstat_ptracer28_sd         =   5.8879598930942E-03
(PID.TID 0000.0001) %MON trcstat_ptracer28_del2       =   4.6464290637489E-05
(PID.TID 0000.0001) %MON trcstat_ptracer29_max        =   1.0586802633244E-03
(PID.TID 0000.0001) %MON trcstat_ptracer29_min        =   9.9999999999874E-51
(PID.TID 0000.0001) %MON trcstat_ptracer29_mean       =   3.0022808333096E-06
(PID.TID 0000.0001) %MON trcstat_ptracer29_sd         =   2.4258250221960E-05
(PID.TID 0000.0001) %MON trcstat_ptracer29_del2       =   1.7087918919489E-07
(PID.TID 0000.0001) %MON trcstat_ptracer30_max        =   1.3047954635312E-02
(PID.TID 0000.0001) %MON trcstat_ptracer30_min        =   1.2230672095914E-29
(PID.TID 0000.0001) %MON trcstat_ptracer30_mean       =   1.3937257407809E-04
(PID.TID 0000.0001) %MON trcstat_ptracer30_sd         =   7.2306761687095E-04
(PID.TID 0000.0001) %MON trcstat_ptracer30_del2       =   7.2911782975497E-06
(PID.TID 0000.0001) %MON trcstat_ptracer31_max        =   5.4501441010450E-05
(PID.TID 0000.0001) %MON trcstat_ptracer31_min        =   1.2590542965552E-14
(PID.TID 0000.0001) %MON trcstat_ptracer31_mean       =   1.1786133191173E-07
(PID.TID 0000.0001) %MON trcstat_ptracer31_sd         =   1.7636641530249E-06
(PID.TID 0000.0001) %MON trcstat_ptracer31_del2       =   4.5788545676329E-08
(PID.TID 0000.0001) %MON trcstat_ptracer32_max        =   5.4102093547916E-05
(PID.TID 0000.0001) %MON trcstat_ptracer32_min        =  -5.4490588694353E-19
(PID.TID 0000.0001) %MON trcstat_ptracer32_mean       =   1.1587659767220E-07
(PID.TID 0000.0001) %MON trcstat_ptracer32_sd         =   1.7531574487566E-06
(PID.TID 0000.0001) %MON trcstat_ptracer32_del2       =   4.5405430961599E-08
(PID.TID 0000.0001) %MON trcstat_ptracer33_max        =   5.2448509121029E-05
(PID.TID 0000.0001) %MON trcstat_ptracer33_min        =  -2.0621699667418E-21
(PID.TID 0000.0001) %MON trcstat_ptracer33_mean       =   1.0622989103607E-07
(PID.TID 0000.0001) %MON trcstat_ptracer33_sd         =   1.6593249258944E-06
(PID.TID 0000.0001) %MON trcstat_ptracer33_del2       =   4.6245327052598E-08
(PID.TID 0000.0001) %MON trcstat_ptracer34_max        =   5.5979201539568E-05
(PID.TID 0000.0001) %MON trcstat_ptracer34_min        =   5.6877366467516E-51
(PID.TID 0000.0001) %MON trcstat_ptracer34_mean       =   1.2493240887129E-07
(PID.TID 0000.0001) %MON trcstat_ptracer34_sd         =   1.8026488860186E-06
(PID.TID 0000.0001) %MON trcstat_ptracer34_del2       =   4.5222093675061E-08
(PID.TID 0000.0001) %MON trcstat_ptracer35_max        =   5.2676099496880E-05
(PID.TID 0000.0001) %MON trcstat_ptracer35_min        =  -2.5993185975451E-17
(PID.TID 0000.0001) %MON trcstat_ptracer35_mean       =   1.0653571945846E-07
(PID.TID 0000.0001) %MON trcstat_ptracer35_sd         =   1.6643556635686E-06
(PID.TID 0000.0001) %MON trcstat_ptracer35_del2       =   4.6436069006456E-08
(PID.TID 0000.0001) %MON trcstat_ptracer36_max        =   5.5979201527929E-05
(PID.TID 0000.0001) %MON trcstat_ptracer36_min        =  -5.8860784472533E-19
(PID.TID 0000.0001) %MON trcstat_ptracer36_mean       =   1.2488851123690E-07
(PID.TID 0000.0001) %MON trcstat_ptracer36_sd         =   1.8019451933277E-06
(PID.TID 0000.0001) %MON trcstat_ptracer36_del2       =   4.5232230741395E-08
(PID.TID 0000.0001) %MON trcstat_ptracer37_max        =   5.6423201927355E-05
(PID.TID 0000.0001) %MON trcstat_ptracer37_min        =  -3.8818101102433E-36
(PID.TID 0000.0001) %MON trcstat_ptracer37_mean       =   1.2846247877068E-07
(PID.TID 0000.0001) %MON trcstat_ptracer37_sd         =   1.8134044596763E-06
(PID.TID 0000.0001) %MON trcstat_ptracer37_del2       =   4.5623230008369E-08
(PID.TID 0000.0001) %MON trcstat_ptracer38_max        =   7.1096962489661E-05
(PID.TID 0000.0001) %MON trcstat_ptracer38_min        =   9.8830745222144E-51
(PID.TID 0000.0001) %MON trcstat_ptracer38_mean       =   1.7596009029168E-07
(PID.TID 0000.0001) %MON trcstat_ptracer38_sd         =   2.2656108385289E-06
(PID.TID 0000.0001) %MON trcstat_ptracer38_del2       =   4.3347152028908E-08
(PID.TID 0000.0001) %MON trcstat_ptracer39_max        =   2.8343724096888E-03
(PID.TID 0000.0001) %MON trcstat_ptracer39_min        =   7.4217719854648E-33
(PID.TID 0000.0001) %MON trcstat_ptracer39_mean       =   1.8752520320722E-05
(PID.TID 0000.0001) %MON trcstat_ptracer39_sd         =   1.3587201440680E-04
(PID.TID 0000.0001) %MON trcstat_ptracer39_del2       =   1.0185347343797E-06
(PID.TID 0000.0001) %MON trcstat_ptracer40_max        =   5.5979201527950E-05
(PID.TID 0000.0001) %MON trcstat_ptracer40_min        =  -7.0886205306079E-19
(PID.TID 0000.0001) %MON trcstat_ptracer40_mean       =   1.2488850955048E-07
(PID.TID 0000.0001) %MON trcstat_ptracer40_sd         =   1.8019451934525E-06
(PID.TID 0000.0001) %MON trcstat_ptracer40_del2       =   4.5232230741204E-08
(PID.TID 0000.0001) %MON trcstat_ptracer41_max        =   5.6006682785362E-05
(PID.TID 0000.0001) %MON trcstat_ptracer41_min        =  -4.8650340804781E-18
(PID.TID 0000.0001) %MON trcstat_ptracer41_mean       =   1.2498363635575E-07
(PID.TID 0000.0001) %MON trcstat_ptracer41_sd         =   1.8029321682774E-06
(PID.TID 0000.0001) %MON trcstat_ptracer41_del2       =   4.5224254109326E-08
(PID.TID 0000.0001) %MON trcstat_ptracer42_max        =   5.2675369604206E-05
(PID.TID 0000.0001) %MON trcstat_ptracer42_min        =   7.4446581086883E-17
(PID.TID 0000.0001) %MON trcstat_ptracer42_mean       =   1.0741117378726E-07
(PID.TID 0000.0001) %MON trcstat_ptracer42_sd         =   1.6629210945149E-06
(PID.TID 0000.0001) %MON trcstat_ptracer42_del2       =   4.6496972180813E-08
(PID.TID 0000.0001) %MON trcstat_ptracer43_max        =   1.0392196615233E-03
(PID.TID 0000.0001) %MON trcstat_ptracer43_min        =   5.4312314011118E-14
(PID.TID 0000.0001) %MON trcstat_ptracer43_mean       =   2.2982036257568E-05
(PID.TID 0000.0001) %MON trcstat_ptracer43_sd         =   8.2479123944966E-05
(PID.TID 0000.0001) %MON trcstat_ptracer43_del2       =   6.4670304101953E-07
(PID.TID 0000.0001) %MON trcstat_ptracer44_max        =   5.5979202191711E-05
(PID.TID 0000.0001) %MON trcstat_ptracer44_min        =  -1.3558520158725E-31
(PID.TID 0000.0001) %MON trcstat_ptracer44_mean       =   1.2490764061097E-07
(PID.TID 0000.0001) %MON trcstat_ptracer44_sd         =   1.8019438746051E-06
(PID.TID 0000.0001) %MON trcstat_ptracer44_del2       =   4.5232231513348E-08
(PID.TID 0000.0001) %MON trcstat_ptracer45_max        =   1.0543690920496E-04
(PID.TID 0000.0001) %MON trcstat_ptracer45_min        =   1.4103338096314E-50
(PID.TID 0000.0001) %MON trcstat_ptracer45_mean       =   3.7059365392517E-07
(PID.TID 0000.0001) %MON trcstat_ptracer45_sd         =   3.9360770118894E-06
(PID.TID 0000.0001) %MON trcstat_ptracer45_del2       =   4.5941256618080E-08
(PID.TID 0000.0001) %MON trcstat_ptracer46_max        =   5.4301758498987E-05
(PID.TID 0000.0001) %MON trcstat_ptracer46_min        =  -6.1881333365667E-21
(PID.TID 0000.0001) %MON trcstat_ptracer46_mean       =   1.1621667695863E-07
(PID.TID 0000.0001) %MON trcstat_ptracer46_sd         =   1.7588762127671E-06
(PID.TID 0000.0001) %MON trcstat_ptracer46_del2       =   4.5634951812891E-08
(PID.TID 0000.0001) %MON trcstat_ptracer47_max        =   5.5991606285295E-05
(PID.TID 0000.0001) %MON trcstat_ptracer47_min        =  -5.1796883045770E-19
(PID.TID 0000.0001) %MON trcstat_ptracer47_mean       =   1.2493129667902E-07
(PID.TID 0000.0001) %MON trcstat_ptracer47_sd         =   1.8024167130815E-06
(PID.TID 0000.0001) %MON trcstat_ptracer47_del2       =   4.5234743107601E-08
(PID.TID 0000.0001) %MON trcstat_ptracer48_max        =   5.5991606289223E-05
(PID.TID 0000.0001) %MON trcstat_ptracer48_min        =  -7.7573414898565E-35
(PID.TID 0000.0001) %MON trcstat_ptracer48_mean       =   1.2493174466703E-07
(PID.TID 0000.0001) %MON trcstat_ptracer48_sd         =   1.8024166814963E-06
(PID.TID 0000.0001) %MON trcstat_ptracer48_del2       =   4.5234743132145E-08
(PID.TID 0000.0001) %MON trcstat_ptracer49_max        =   5.5992193003304E-05
(PID.TID 0000.0001) %MON trcstat_ptracer49_min        =   7.8263705781216E-51
(PID.TID 0000.0001) %MON trcstat_ptracer49_mean       =   1.3839666135685E-07
(PID.TID 0000.0001) %MON trcstat_ptracer49_sd         =   1.8022067761936E-06
(PID.TID 0000.0001) %MON trcstat_ptracer49_del2       =   4.5237301611253E-08
(PID.TID 0000.0001) %MON trcstat_ptracer50_max        =   5.6577451394603E-05
(PID.TID 0000.0001) %MON trcstat_ptracer50_min        =   9.6061500435161E-51
(PID.TID 0000.0001) %MON trcstat_ptracer50_mean       =   1.6461496262686E-07
(PID.TID 0000.0001) %MON trcstat_ptracer50_sd         =   2.2616982103518E-06
(PID.TID 0000.0001) %MON trcstat_ptracer50_del2       =   4.1020075216578E-08
(PID.TID 0000.0001) %MON trcstat_ptracer51_max        =   5.6025402782639E-05
(PID.TID 0000.0001) %MON trcstat_ptracer51_min        =   1.0000000769504E-50
(PID.TID 0000.0001) %MON trcstat_ptracer51_mean       =   1.4016666055830E-07
(PID.TID 0000.0001) %MON trcstat_ptracer51_sd         =   1.8051137070578E-06
(PID.TID 0000.0001) %MON trcstat_ptracer51_del2       =   4.5244574390250E-08
(PID.TID 0000.0001) %MON trcstat_ptracer52_max        =   5.7569563164783E-05
(PID.TID 0000.0001) %MON trcstat_ptracer52_min        =   4.4995663898916E-50
(PID.TID 0000.0001) %MON trcstat_ptracer52_mean       =   1.4607900653117E-07
(PID.TID 0000.0001) %MON trcstat_ptracer52_sd         =   2.1352174342317E-06
(PID.TID 0000.0001) %MON trcstat_ptracer52_del2       =   4.1938663697611E-08
(PID.TID 0000.0001) %MON trcstat_ptracer53_max        =   5.2448509122906E-05
(PID.TID 0000.0001) %MON trcstat_ptracer53_min        =  -2.5763187675057E-17
(PID.TID 0000.0001) %MON trcstat_ptracer53_mean       =   1.0622989087396E-07
(PID.TID 0000.0001) %MON trcstat_ptracer53_sd         =   1.6593249259793E-06
(PID.TID 0000.0001) %MON trcstat_ptracer53_del2       =   4.6245327052011E-08
(PID.TID 0000.0001) %MON trcstat_ptracer54_max        =   5.5991606286243E-05
(PID.TID 0000.0001) %MON trcstat_ptracer54_min        =  -4.2532941173473E-18
(PID.TID 0000.0001) %MON trcstat_ptracer54_mean       =   1.2493127862689E-07
(PID.TID 0000.0001) %MON trcstat_ptracer54_sd         =   1.8024167144560E-06
(PID.TID 0000.0001) %MON trcstat_ptracer54_del2       =   4.5234743105126E-08
(PID.TID 0000.0001) %MON trcstat_ptracer55_max        =   5.2448509122704E-05
(PID.TID 0000.0001) %MON trcstat_ptracer55_min        =  -2.1334497132812E-23
(PID.TID 0000.0001) %MON trcstat_ptracer55_mean       =   1.0622989119015E-07
(PID.TID 0000.0001) %MON trcstat_ptracer55_sd         =   1.6593249259559E-06
(PID.TID 0000.0001) %MON trcstat_ptracer55_del2       =   4.6245327052024E-08
(PID.TID 0000.0001) %MON trcstat_ptracer56_max        =   2.9295311996828E-02
(PID.TID 0000.0001) %MON trcstat_ptracer56_min        =   4.4564075811222E-41
(PID.TID 0000.0001) %MON trcstat_ptracer56_mean       =   3.3252697741896E-04
(PID.TID 0000.0001) %MON trcstat_ptracer56_sd         =   1.8453373758853E-03
(PID.TID 0000.0001) %MON trcstat_ptracer56_del2       =   9.4476531073412E-06
(PID.TID 0000.0001) %MON trcstat_ptracer57_max        =   5.3397503390431E-04
(PID.TID 0000.0001) %MON trcstat_ptracer57_min        =   1.6274199021998E-44
(PID.TID 0000.0001) %MON trcstat_ptracer57_mean       =   9.6616921257196E-07
(PID.TID 0000.0001) %MON trcstat_ptracer57_sd         =   9.6425924430159E-06
(PID.TID 0000.0001) %MON trcstat_ptracer57_del2       =   8.9629333889306E-08
(PID.TID 0000.0001) %MON trcstat_ptracer58_max        =   1.0677376370112E-04
(PID.TID 0000.0001) %MON trcstat_ptracer58_min        =   9.9237929542737E-34
(PID.TID 0000.0001) %MON trcstat_ptracer58_mean       =   2.1832846585790E-07
(PID.TID 0000.0001) %MON trcstat_ptracer58_sd         =   3.2986748396011E-06
(PID.TID 0000.0001) %MON trcstat_ptracer58_del2       =   4.4163773215090E-08
(PID.TID 0000.0001) %MON trcstat_ptracer59_max        =   7.8314774810482E-05
(PID.TID 0000.0001) %MON trcstat_ptracer59_min        =   9.7961421530890E-51
(PID.TID 0000.0001) %MON trcstat_ptracer59_mean       =   2.0462188376108E-07
(PID.TID 0000.0001) %MON trcstat_ptracer59_sd         =   2.5610036447897E-06
(PID.TID 0000.0001) %MON trcstat_ptracer59_del2       =   4.1617372968249E-08
(PID.TID 0000.0001) %MON trcstat_ptracer60_max        =   7.7035971350991E-05
(PID.TID 0000.0001) %MON trcstat_ptracer60_min        =  -6.1992234955828E-32
(PID.TID 0000.0001) %MON trcstat_ptracer60_mean       =   2.0694328574989E-07
(PID.TID 0000.0001) %MON trcstat_ptracer60_sd         =   2.9428359745187E-06
(PID.TID 0000.0001) %MON trcstat_ptracer60_del2       =   3.9587157454502E-08
(PID.TID 0000.0001) %MON trcstat_ptracer61_max        =   6.8715311787035E-05
(PID.TID 0000.0001) %MON trcstat_ptracer61_min        =   6.6450632443609E-30
(PID.TID 0000.0001) %MON trcstat_ptracer61_mean       =   1.5180917680004E-07
(PID.TID 0000.0001) %MON trcstat_ptracer61_sd         =   2.3814139503946E-06
(PID.TID 0000.0001) %MON trcstat_ptracer61_del2       =   4.1319977169069E-08
(PID.TID 0000.0001) %MON trcstat_ptracer62_max        =   6.9223227033353E-05
(PID.TID 0000.0001) %MON trcstat_ptracer62_min        =   9.9280396990052E-51
(PID.TID 0000.0001) %MON trcstat_ptracer62_mean       =   1.7051258184488E-07
(PID.TID 0000.0001) %MON trcstat_ptracer62_sd         =   2.2023295213923E-06
(PID.TID 0000.0001) %MON trcstat_ptracer62_del2       =   4.3927703605399E-08
(PID.TID 0000.0001) %MON trcstat_ptracer63_max        =   6.7698688910537E-05
(PID.TID 0000.0001) %MON trcstat_ptracer63_min        =   9.5791734422443E-51
(PID.TID 0000.0001) %MON trcstat_ptracer63_mean       =   2.4314128285297E-07
(PID.TID 0000.0001) %MON trcstat_ptracer63_sd         =   2.9686843435371E-06
(PID.TID 0000.0001) %MON trcstat_ptracer63_del2       =   3.8533033943102E-08
(PID.TID 0000.0001) %MON trcstat_ptracer64_max        =   4.6497217087362E-04
(PID.TID 0000.0001) %MON trcstat_ptracer64_min        =  -1.7896198135753E-24
(PID.TID 0000.0001) %MON trcstat_ptracer64_mean       =   1.8263501068449E-06
(PID.TID 0000.0001) %MON trcstat_ptracer64_sd         =   1.7121861395638E-05
(PID.TID 0000.0001) %MON trcstat_ptracer64_del2       =   2.2822795419850E-07
(PID.TID 0000.0001) %MON trcstat_ptracer65_max        =   5.4116665673017E-05
(PID.TID 0000.0001) %MON trcstat_ptracer65_min        =   4.1176637193559E-18
(PID.TID 0000.0001) %MON trcstat_ptracer65_mean       =   1.1592836905018E-07
(PID.TID 0000.0001) %MON trcstat_ptracer65_sd         =   1.7536261043158E-06
(PID.TID 0000.0001) %MON trcstat_ptracer65_del2       =   4.5394928435457E-08
(PID.TID 0000.0001) %MON trcstat_ptracer66_max        =   5.6006682784389E-05
(PID.TID 0000.0001) %MON trcstat_ptracer66_min        =  -5.1234188284283E-19
(PID.TID 0000.0001) %MON trcstat_ptracer66_mean       =   1.2498366203136E-07
(PID.TID 0000.0001) %MON trcstat_ptracer66_sd         =   1.8029321663421E-06
(PID.TID 0000.0001) %MON trcstat_ptracer66_del2       =   4.5224254112737E-08
(PID.TID 0000.0001) %MON trcstat_ptracer67_max        =   5.2448509122467E-05
(PID.TID 0000.0001) %MON trcstat_ptracer67_min        =  -2.6407660436652E-17
(PID.TID 0000.0001) %MON trcstat_ptracer67_mean       =   1.0623274881445E-07
(PID.TID 0000.0001) %MON trcstat_ptracer67_sd         =   1.6593694012643E-06
(PID.TID 0000.0001) %MON trcstat_ptracer67_del2       =   4.6244307804766E-08
(PID.TID 0000.0001) %MON trcstat_ptracer68_max        =   5.2671547967909E-05
(PID.TID 0000.0001) %MON trcstat_ptracer68_min        =  -6.3915720387986E-25
(PID.TID 0000.0001) %MON trcstat_ptracer68_mean       =   1.0670722868333E-07
(PID.TID 0000.0001) %MON trcstat_ptracer68_sd         =   1.6670828006357E-06
(PID.TID 0000.0001) %MON trcstat_ptracer68_del2       =   4.6407083159757E-08
(PID.TID 0000.0001) %MON trcstat_ptracer69_max        =   5.6006682783287E-05
(PID.TID 0000.0001) %MON trcstat_ptracer69_min        =  -5.8636483185960E-19
(PID.TID 0000.0001) %MON trcstat_ptracer69_mean       =   1.2498364119055E-07
(PID.TID 0000.0001) %MON trcstat_ptracer69_sd         =   1.8029321677620E-06
(PID.TID 0000.0001) %MON trcstat_ptracer69_del2       =   4.5224254110873E-08
(PID.TID 0000.0001) %MON trcstat_ptracer70_max        =   5.5991606286328E-05
(PID.TID 0000.0001) %MON trcstat_ptracer70_min        =  -2.6725416286017E-18
(PID.TID 0000.0001) %MON trcstat_ptracer70_mean       =   1.2493127864327E-07
(PID.TID 0000.0001) %MON trcstat_ptracer70_sd         =   1.8024167144610E-06
(PID.TID 0000.0001) %MON trcstat_ptracer70_del2       =   4.5234743105103E-08
(PID.TID 0000.0001) %MON trcstat_ptracer71_max        =   1.1466112741170E-04
(PID.TID 0000.0001) %MON trcstat_ptracer71_min        =   7.8193967928282E-31
(PID.TID 0000.0001) %MON trcstat_ptracer71_mean       =   2.4939271039610E-07
(PID.TID 0000.0001) %MON trcstat_ptracer71_sd         =   3.4926150935796E-06
(PID.TID 0000.0001) %MON trcstat_ptracer71_del2       =   4.5974896397314E-08
(PID.TID 0000.0001) %MON trcstat_ptracer72_max        =   5.6047922936671E-05
(PID.TID 0000.0001) %MON trcstat_ptracer72_min        =   9.9844339795158E-51
(PID.TID 0000.0001) %MON trcstat_ptracer72_mean       =   1.2502265964254E-07
(PID.TID 0000.0001) %MON trcstat_ptracer72_sd         =   1.8034080080058E-06
(PID.TID 0000.0001) %MON trcstat_ptracer72_del2       =   4.5241439061770E-08
(PID.TID 0000.0001) %MON trcstat_ptracer73_max        =   1.9109358922431E-02
(PID.TID 0000.0001) %MON trcstat_ptracer73_min        =  -3.8576227259410E-19
(PID.TID 0000.0001) %MON trcstat_ptracer73_mean       =   6.2641624182448E-04
(PID.TID 0000.0001) %MON trcstat_ptracer73_sd         =   1.6807404972587E-03
(PID.TID 0000.0001) %MON trcstat_ptracer73_del2       =   1.0071310777963E-05
(PID.TID 0000.0001) %MON trcstat_ptracer74_max        =   5.4116661271735E-05
(PID.TID 0000.0001) %MON trcstat_ptracer74_min        =  -1.3361676678101E-18
(PID.TID 0000.0001) %MON trcstat_ptracer74_mean       =   1.1592110169647E-07
(PID.TID 0000.0001) %MON trcstat_ptracer74_sd         =   1.7536262305155E-06
(PID.TID 0000.0001) %MON trcstat_ptracer74_del2       =   4.5394930428311E-08
(PID.TID 0000.0001) %MON trcstat_ptracer75_max        =   5.4172255291467E-05
(PID.TID 0000.0001) %MON trcstat_ptracer75_min        =   4.9771123494266E-37
(PID.TID 0000.0001) %MON trcstat_ptracer75_mean       =   1.3850034134951E-07
(PID.TID 0000.0001) %MON trcstat_ptracer75_sd         =   1.8196755411768E-06
(PID.TID 0000.0001) %MON trcstat_ptracer75_del2       =   4.4514512079783E-08
(PID.TID 0000.0001) %MON trcstat_ptracer76_max        =   5.2434390451974E-05
(PID.TID 0000.0001) %MON trcstat_ptracer76_min        =  -2.4503443041590E-19
(PID.TID 0000.0001) %MON trcstat_ptracer76_mean       =   1.0619086657801E-07
(PID.TID 0000.0001) %MON trcstat_ptracer76_sd         =   1.6588844844955E-06
(PID.TID 0000.0001) %MON trcstat_ptracer76_del2       =   4.6255428638399E-08
(PID.TID 0000.0001) %MON trcstat_ptracer77_max        =   5.2422773871262E-05
(PID.TID 0000.0001) %MON trcstat_ptracer77_min        =   6.7742490228565E-29
(PID.TID 0000.0001) %MON trcstat_ptracer77_mean       =   1.0615777366573E-07
(PID.TID 0000.0001) %MON trcstat_ptracer77_sd         =   1.6584644357865E-06
(PID.TID 0000.0001) %MON trcstat_ptracer77_del2       =   4.6252820867472E-08
(PID.TID 0000.0001) %MON trcstat_ptracer78_max        =   5.2448509122253E-05
(PID.TID 0000.0001) %MON trcstat_ptracer78_min        =  -1.3677657517444E-17
(PID.TID 0000.0001) %MON trcstat_ptracer78_mean       =   1.0625761899013E-07
(PID.TID 0000.0001) %MON trcstat_ptracer78_sd         =   1.6598403411339E-06
(PID.TID 0000.0001) %MON trcstat_ptracer78_del2       =   4.6249938361814E-08
(PID.TID 0000.0001) %MON trcstat_ptracer79_max        =   9.5945133784877E-02
(PID.TID 0000.0001) %MON trcstat_ptracer79_min        =   3.2592199841837E-15
(PID.TID 0000.0001) %MON trcstat_ptracer79_mean       =   6.7835734758132E-03
(PID.TID 0000.0001) %MON trcstat_ptracer79_sd         =   1.0395493914528E-02
(PID.TID 0000.0001) %MON trcstat_ptracer79_del2       =   6.2580469763782E-05
(PID.TID 0000.0001) %MON trcstat_ptracer80_max        =   5.6219788968629E-05
(PID.TID 0000.0001) %MON trcstat_ptracer80_min        =  -1.4829006963485E-23
(PID.TID 0000.0001) %MON trcstat_ptracer80_mean       =   1.2529325457545E-07
(PID.TID 0000.0001) %MON trcstat_ptracer80_sd         =   1.8088486624557E-06
(PID.TID 0000.0001) %MON trcstat_ptracer80_del2       =   4.5477379235144E-08
(PID.TID 0000.0001) %MON trcstat_ptracer81_max        =   5.6186443297282E-05
(PID.TID 0000.0001) %MON trcstat_ptracer81_min        =   8.7279115868970E-51
(PID.TID 0000.0001) %MON trcstat_ptracer81_mean       =   1.4136484106433E-07
(PID.TID 0000.0001) %MON trcstat_ptracer81_sd         =   2.0136345461446E-06
(PID.TID 0000.0001) %MON trcstat_ptracer81_del2       =   4.2877914299748E-08
(PID.TID 0000.0001) %MON trcstat_ptracer82_max        =   1.4741688130165E-04
(PID.TID 0000.0001) %MON trcstat_ptracer82_min        =  -1.4541568997215E-41
(PID.TID 0000.0001) %MON trcstat_ptracer82_mean       =   5.2121716378002E-07
(PID.TID 0000.0001) %MON trcstat_ptracer82_sd         =   5.2372534006587E-06
(PID.TID 0000.0001) %MON trcstat_ptracer82_del2       =   4.5847729869900E-08
(PID.TID 0000.0001) %MON trcstat_ptracer83_max        =   2.1195339950747E-02
(PID.TID 0000.0001) %MON trcstat_ptracer83_min        =   2.1655010614225E-35
(PID.TID 0000.0001) %MON trcstat_ptracer83_mean       =   1.3380993463502E-04
(PID.TID 0000.0001) %MON trcstat_ptracer83_sd         =   8.3840170590014E-04
(PID.TID 0000.0001) %MON trcstat_ptracer83_del2       =   4.9151813512151E-06
(PID.TID 0000.0001) %MON trcstat_ptracer84_max        =   1.9363823279328E-04
(PID.TID 0000.0001) %MON trcstat_ptracer84_min        =  -3.5834620387162E-28
(PID.TID 0000.0001) %MON trcstat_ptracer84_mean       =   5.4110389782167E-07
(PID.TID 0000.0001) %MON trcstat_ptracer84_sd         =   6.6269432556897E-06
(PID.TID 0000.0001) %MON trcstat_ptracer84_del2       =   7.2706758434462E-08
(PID.TID 0000.0001) %MON trcstat_ptracer85_max        =   5.6399049563155E-05
(PID.TID 0000.0001) %MON trcstat_ptracer85_min        =   8.4295656847625E-51
(PID.TID 0000.0001) %MON trcstat_ptracer85_mean       =   1.2595442429511E-07
(PID.TID 0000.0001) %MON trcstat_ptracer85_sd         =   1.8109680406801E-06
(PID.TID 0000.0001) %MON trcstat_ptracer85_del2       =   4.5632639712523E-08
(PID.TID 0000.0001) %MON trcstat_ptracer86_max        =   5.2448509122916E-05
(PID.TID 0000.0001) %MON trcstat_ptracer86_min        =  -2.5756670261960E-17
(PID.TID 0000.0001) %MON trcstat_ptracer86_mean       =   1.0622989087407E-07
(PID.TID 0000.0001) %MON trcstat_ptracer86_sd         =   1.6593249259805E-06
(PID.TID 0000.0001) %MON trcstat_ptracer86_del2       =   4.6245327052002E-08
(PID.TID 0000.0001) %MON trcstat_ptracer87_max        =   5.6027369915539E-05
(PID.TID 0000.0001) %MON trcstat_ptracer87_min        =  -1.8778578204708E-18
(PID.TID 0000.0001) %MON trcstat_ptracer87_mean       =   1.2515727395627E-07
(PID.TID 0000.0001) %MON trcstat_ptracer87_sd         =   1.8056842635266E-06
(PID.TID 0000.0001) %MON trcstat_ptracer87_del2       =   4.5247718267552E-08
(PID.TID 0000.0001) %MON trcstat_ptracer88_max        =   5.6232618014646E-05
(PID.TID 0000.0001) %MON trcstat_ptracer88_min        =  -1.1355362096727E-18
(PID.TID 0000.0001) %MON trcstat_ptracer88_mean       =   1.2548751383631E-07
(PID.TID 0000.0001) %MON trcstat_ptracer88_sd         =   1.8107427539977E-06
(PID.TID 0000.0001) %MON trcstat_ptracer88_del2       =   4.5386653363228E-08
(PID.TID 0000.0001) %MON trcstat_ptracer89_max        =   6.3064219820650E-02
(PID.TID 0000.0001) %MON trcstat_ptracer89_min        =   4.6173380238825E-30
(PID.TID 0000.0001) %MON trcstat_ptracer89_mean       =   3.6815882302427E-03
(PID.TID 0000.0001) %MON trcstat_ptracer89_sd         =   7.9834939695898E-03
(PID.TID 0000.0001) %MON trcstat_ptracer89_del2       =   2.9990662373966E-05
(PID.TID 0000.0001) %MON trcstat_ptracer90_max        =   5.4480735213436E-05
(PID.TID 0000.0001) %MON trcstat_ptracer90_min        =  -1.3589440172057E-18
(PID.TID 0000.0001) %MON trcstat_ptracer90_mean       =   1.1650918168254E-07
(PID.TID 0000.0001) %MON trcstat_ptracer90_sd         =   1.7633253779688E-06
(PID.TID 0000.0001) %MON trcstat_ptracer90_del2       =   4.5771011269536E-08
(PID.TID 0000.0001) %MON trcstat_ptracer91_max        =   2.4287863602505E-04
(PID.TID 0000.0001) %MON trcstat_ptracer91_min        =   2.3609462504709E-24
(PID.TID 0000.0001) %MON trcstat_ptracer91_mean       =   5.5404778153122E-07
(PID.TID 0000.0001) %MON trcstat_ptracer91_sd         =   7.1414739724013E-06
(PID.TID 0000.0001) %MON trcstat_ptracer91_del2       =   9.8504515367537E-08
(PID.TID 0000.0001) %MON trcstat_ptracer92_max        =   3.2717915174254E-04
(PID.TID 0000.0001) %MON trcstat_ptracer92_min        =   8.9658367454128E-43
(PID.TID 0000.0001) %MON trcstat_ptracer92_mean       =   1.6550810171162E-06
(PID.TID 0000.0001) %MON trcstat_ptracer92_sd         =   1.3668642977113E-05
(PID.TID 0000.0001) %MON trcstat_ptracer92_del2       =   1.0180031763442E-07
(PID.TID 0000.0001) %MON trcstat_ptracer93_max        =   7.3966142079060E-03
(PID.TID 0000.0001) %MON trcstat_ptracer93_min        =   3.4056826736882E-33
(PID.TID 0000.0001) %MON trcstat_ptracer93_mean       =   1.0777674083335E-04
(PID.TID 0000.0001) %MON trcstat_ptracer93_sd         =   4.2723101829823E-04
(PID.TID 0000.0001) %MON trcstat_ptracer93_del2       =   3.4151380282086E-06
(PID.TID 0000.0001) %MON trcstat_ptracer94_max        =   5.2448515426877E-05
(PID.TID 0000.0001) %MON trcstat_ptracer94_min        =   1.2411949224959E-28
(PID.TID 0000.0001) %MON trcstat_ptracer94_mean       =   1.0623107503895E-07
(PID.TID 0000.0001) %MON trcstat_ptracer94_sd         =   1.6593252680274E-06
(PID.TID 0000.0001) %MON trcstat_ptracer94_del2       =   4.6245324919280E-08
(PID.TID 0000.0001) %MON trcstat_ptracer95_max        =   5.5979201529120E-05
(PID.TID 0000.0001) %MON trcstat_ptracer95_min        =  -4.2349792754670E-18
(PID.TID 0000.0001) %MON trcstat_ptracer95_mean       =   1.2488850866860E-07
(PID.TID 0000.0001) %MON trcstat_ptracer95_sd         =   1.8019451936078E-06
(PID.TID 0000.0001) %MON trcstat_ptracer95_del2       =   4.5232230740693E-08
(PID.TID 0000.0001) %MON trcstat_ptracer96_max        =   5.2448509122162E-05
(PID.TID 0000.0001) %MON trcstat_ptracer96_min        =  -2.6877640435272E-17
(PID.TID 0000.0001) %MON trcstat_ptracer96_mean       =   1.0622989087181E-07
(PID.TID 0000.0001) %MON trcstat_ptracer96_sd         =   1.6593249259484E-06
(PID.TID 0000.0001) %MON trcstat_ptracer96_del2       =   4.6245327052307E-08
(PID.TID 0000.0001) %MON trcstat_ptracer97_max        =   8.1299978951564E-04
(PID.TID 0000.0001) %MON trcstat_ptracer97_min        =   1.0000000000689E-50
(PID.TID 0000.0001) %MON trcstat_ptracer97_mean       =   1.5789419190018E-06
(PID.TID 0000.0001) %MON trcstat_ptracer97_sd         =   1.5880787414582E-05
(PID.TID 0000.0001) %MON trcstat_ptracer97_del2       =   1.3321044621838E-07
(PID.TID 0000.0001) %MON trcstat_ptracer98_max        =   7.3687722693583E-05
(PID.TID 0000.0001) %MON trcstat_ptracer98_min        =  -1.0142733607223E-23
(PID.TID 0000.0001) %MON trcstat_ptracer98_mean       =   2.0560644520128E-07
(PID.TID 0000.0001) %MON trcstat_ptracer98_sd         =   2.8715532385367E-06
(PID.TID 0000.0001) %MON trcstat_ptracer98_del2       =   3.9346457653213E-08
(PID.TID 0000.0001) %MON trcstat_ptracer99_max        =   5.4090107406780E-05
(PID.TID 0000.0001) %MON trcstat_ptracer99_min        =  -9.8852564286137E-22
(PID.TID 0000.0001) %MON trcstat_ptracer99_mean       =   1.1583913144683E-07
(PID.TID 0000.0001) %MON trcstat_ptracer99_sd         =   1.7527096525165E-06
(PID.TID 0000.0001) %MON trcstat_ptracer99_del2       =   4.5402950826512E-08
(PID.TID 0000.0001) // =======================================================
(PID.TID 0000.0001) // End MONITOR ptracers field statistics
(PID.TID 0000.0001) // =======================================================
 Compute Stats, Diag. #   1605  SIqsw     vol(   0 ): 4.767E+11  Parms: SM      U1      
 Compute Stats, Diag. #     86  oceQsw    vol(   0 ): 4.767E+11  Parms: SM      U1      
 Compute Stats, Diag. #   1497  PAR       vol(   0 ): 2.820E+13  Parms: SM P    MR      
 Compute Stats, Diag. #    176  EXFswnet  vol(   0 ): 4.767E+11  Parms: SM      U1      
 Compute Stats, Diag. #    178  EXFswdn   vol(   0 ): 4.767E+11  Parms: SM      U1      
 Compute Stats, Diag. #     26  THETA     vol(   0 ): 2.820E+13  Parms: SMR     MR      
 Compute Stats, Diag. #     29  SALTanom  vol(   0 ): 2.820E+13  Parms: SMR     MR      
 Compute Stats, Diag. #   1498  PP        vol(   0 ): 2.820E+13  Parms: SM P    MR      
 Compute Stats, Diag. #   1223  TRAC79    vol(   0 ): 2.820E+13  Parms: SMR     MR      
 Compute Stats, Diag. #     23  ETAN      vol(   0 ): 4.767E+11  Parms: SM      M1      
 Compute Stats, Diag. #    235  TRAC03    vol(   0 ): 2.820E+13  Parms: SMR     MR      
 Compute Stats, Diag. #   1579  Diver1    vol(   0 ): 2.820E+13  Parms: SM P    MR      
 Compute Stats, Diag. #   1580  Diver2    vol(   0 ): 2.820E+13  Parms: SM P    MR      
 Compute Stats, Diag. #   1581  Diver3    vol(   0 ): 2.820E+13  Parms: SM P    MR      
 Compute Stats, Diag. #   1582  Diver4    vol(   0 ): 2.820E+13  Parms: SM P    MR      
 Compute Stats, Diag. #   1583  Shannon   vol(   0 ): 2.820E+13  Parms: SM P    MR      
 Compute Stats, Diag. #   1584  Simpson   vol(   0 ): 2.820E+13  Parms: SM P    MR      
(PID.TID 0000.0001) // =======================================================
(PID.TID 0000.0001) // Begin MONITOR EXF statistics
(PID.TID 0000.0001) // =======================================================
(PID.TID 0000.0001) %MON exf_tsnumber                 =                188389
(PID.TID 0000.0001) %MON exf_time_sec                 =   2.2606680000000E+08
(PID.TID 0000.0001) %MON exf_ustress_max              =   2.8448643606052E-01
(PID.TID 0000.0001) %MON exf_ustress_min              =  -3.2854578905499E-02
(PID.TID 0000.0001) %MON exf_ustress_mean             =   8.1906495780985E-02
(PID.TID 0000.0001) %MON exf_ustress_sd               =   7.8974338825608E-02
(PID.TID 0000.0001) %MON exf_ustress_del2             =   6.3595654212988E-05
(PID.TID 0000.0001) %MON exf_vstress_max              =   1.6899162771494E-01
(PID.TID 0000.0001) %MON exf_vstress_min              =  -2.0113434820226E-01
(PID.TID 0000.0001) %MON exf_vstress_mean             =  -2.2653552578674E-02
(PID.TID 0000.0001) %MON exf_vstress_sd               =   8.0106520264242E-02
(PID.TID 0000.0001) %MON exf_vstress_del2             =   5.9417716084653E-05
(PID.TID 0000.0001) %MON exf_hflux_max                =   6.3495003662399E+01
(PID.TID 0000.0001) %MON exf_hflux_min                =  -1.7710527590197E+02
(PID.TID 0000.0001) %MON exf_hflux_mean               =  -7.7469335274023E+01
(PID.TID 0000.0001) %MON exf_hflux_sd                 =   5.8651901513907E+01
(PID.TID 0000.0001) %MON exf_hflux_del2               =   3.7135900427181E-01
(PID.TID 0000.0001) %MON exf_sflux_max                =   1.2384384209162E-08
(PID.TID 0000.0001) %MON exf_sflux_min                =  -3.0221744414420E-07
(PID.TID 0000.0001) %MON exf_sflux_mean               =  -9.8804811178885E-08
(PID.TID 0000.0001) %MON exf_sflux_sd                 =   7.5283891229342E-08
(PID.TID 0000.0001) %MON exf_sflux_del2               =   1.2041932844412E-10
(PID.TID 0000.0001) %MON exf_uwind_max                =   1.2163292286165E+01
(PID.TID 0000.0001) %MON exf_uwind_min                =  -2.4644160503935E+00
(PID.TID 0000.0001) %MON exf_uwind_mean               =   5.8862224962173E+00
(PID.TID 0000.0001) %MON exf_uwind_sd                 =   3.6559471093955E+00
(PID.TID 0000.0001) %MON exf_uwind_del2               =   1.6457158585592E-03
(PID.TID 0000.0001) %MON exf_vwind_max                =   1.0664458017959E+01
(PID.TID 0000.0001) %MON exf_vwind_min                =  -8.8631103278118E+00
(PID.TID 0000.0001) %MON exf_vwind_mean               =  -1.3712078722028E+00
(PID.TID 0000.0001) %MON exf_vwind_sd                 =   5.4937669672576E+00
(PID.TID 0000.0001) %MON exf_vwind_del2               =   2.0822172966916E-03
(PID.TID 0000.0001) %MON exf_wspeed_max               =   1.3961589450324E+01
(PID.TID 0000.0001) %MON exf_wspeed_min               =   3.8657118535841E+00
(PID.TID 0000.0001) %MON exf_wspeed_mean              =   8.5845483541135E+00
(PID.TID 0000.0001) %MON exf_wspeed_sd                =   2.5260207079281E+00
(PID.TID 0000.0001) %MON exf_wspeed_del2              =   7.1627023235442E-02
(PID.TID 0000.0001) %MON exf_atemp_max                =   2.7986124078611E+02
(PID.TID 0000.0001) %MON exf_atemp_min                =   2.6685426217897E+02
(PID.TID 0000.0001) %MON exf_atemp_mean               =   2.7518363676767E+02
(PID.TID 0000.0001) %MON exf_atemp_sd                 =   2.5706533545947E+00
(PID.TID 0000.0001) %MON exf_atemp_del2               =   1.8553326045793E-02
(PID.TID 0000.0001) %MON exf_aqh_max                  =   6.0510926341740E-03
(PID.TID 0000.0001) %MON exf_aqh_min                  =   2.3865097677218E-03
(PID.TID 0000.0001) %MON exf_aqh_mean                 =   4.3269549840197E-03
(PID.TID 0000.0001) %MON exf_aqh_sd                   =   7.4100510952412E-04
(PID.TID 0000.0001) %MON exf_aqh_del2                 =   2.9460565741578E-05
(PID.TID 0000.0001) %MON exf_lwflux_max               =   8.1751020200717E+01
(PID.TID 0000.0001) %MON exf_lwflux_min               =   6.7634399166778E+00
(PID.TID 0000.0001) %MON exf_lwflux_mean              =   3.9333661352512E+01
(PID.TID 0000.0001) %MON exf_lwflux_sd                =   1.8804728958867E+01
(PID.TID 0000.0001) %MON exf_lwflux_del2              =   2.7238538204258E-01
(PID.TID 0000.0001) %MON exf_precip_max               =   3.0361377083156E-07
(PID.TID 0000.0001) %MON exf_precip_min               =   1.8514937374685E-09
(PID.TID 0000.0001) %MON exf_precip_mean              =   9.5270567235005E-08
(PID.TID 0000.0001) %MON exf_precip_sd                =   7.4302544560008E-08
(PID.TID 0000.0001) %MON exf_precip_del2              =   1.2681407832062E-09
(PID.TID 0000.0001) %MON exf_swflux_max               =  -9.0116594309309E+01
(PID.TID 0000.0001) %MON exf_swflux_min               =  -2.0532529254673E+02
(PID.TID 0000.0001) %MON exf_swflux_mean              =  -1.3691610953429E+02
(PID.TID 0000.0001) %MON exf_swflux_sd                =   2.9157229455505E+01
(PID.TID 0000.0001) %MON exf_swflux_del2              =   3.2243161019268E-02
(PID.TID 0000.0001) %MON exf_evap_max                 =   2.6215335649565E-08
(PID.TID 0000.0001) %MON exf_evap_min                 =  -1.3577079960141E-08
(PID.TID 0000.0001) %MON exf_evap_mean                =   5.1294658735327E-09
(PID.TID 0000.0001) %MON exf_evap_sd                  =   8.5676445860419E-09
(PID.TID 0000.0001) %MON exf_evap_del2                =   8.8201731039170E-11
(PID.TID 0000.0001) %MON exf_swdown_max               =   2.4155916770203E+02
(PID.TID 0000.0001) %MON exf_swdown_min               =   1.0601952271683E+02
(PID.TID 0000.0001) %MON exf_swdown_mean              =   1.6107777592269E+02
(PID.TID 0000.0001) %MON exf_swdown_sd                =   3.4302622888829E+01
(PID.TID 0000.0001) %MON exf_swdown_del2              =   1.0695037602558E+00
(PID.TID 0000.0001) %MON exf_lwdown_max               =   3.0559800373736E+02
(PID.TID 0000.0001) %MON exf_lwdown_min               =   2.4297423608660E+02
(PID.TID 0000.0001) %MON exf_lwdown_mean              =   2.7573503448893E+02
(PID.TID 0000.0001) %MON exf_lwdown_sd                =   1.4913040179647E+01
(PID.TID 0000.0001) %MON exf_lwdown_del2              =   2.0749422557095E+00
(PID.TID 0000.0001) %MON exf_runoff_max               =   7.4975011851692E-08
(PID.TID 0000.0001) %MON exf_runoff_min               =   0.0000000000000E+00
(PID.TID 0000.0001) %MON exf_runoff_mean              =   8.6637098174130E-09
(PID.TID 0000.0001) %MON exf_runoff_sd                =   1.9487938307725E-08
(PID.TID 0000.0001) %MON exf_runoff_del2              =   6.8076164467882E-11
(PID.TID 0000.0001) %MON exf_climsss_max              =   3.4374299004017E+01
(PID.TID 0000.0001) %MON exf_climsss_min              =   2.9702826857686E+00
(PID.TID 0000.0001) %MON exf_climsss_mean             =   1.2720628886129E+01
(PID.TID 0000.0001) %MON exf_climsss_sd               =   1.0010399761468E+01
(PID.TID 0000.0001) %MON exf_climsss_del2             =   3.2300331250826E-03
(PID.TID 0000.0001) // =======================================================
(PID.TID 0000.0001) // End MONITOR EXF statistics
(PID.TID 0000.0001) // =======================================================
 SEAICE_LSR: Residual Initial ipass,Uice,Vice=    1  2.68266650E-02  2.54455712E-02
 SEAICE_LSR: Residual FrDrift U_fd,V_fd=  3.26699383E+02  2.32784632E+02
 SEAICE_LSR (ipass=   1) iters,dU,Resid=    42  9.21334957E-05  1.89134016E-04
 SEAICE_LSR (ipass=   1) iters,dV,Resid=    38  9.72891204E-05  2.04612070E-03
 SEAICE_LSR: Residual Initial ipass,Uice,Vice=    2  2.16044054E-02  2.02597419E-02
 SEAICE_LSR: Residual FrDrift U_fd,V_fd=  3.26707194E+02  2.32792291E+02
 SEAICE_LSR (ipass=   2) iters,dU,Resid=    16  9.45405874E-05  2.62939377E-04
 SEAICE_LSR (ipass=   2) iters,dV,Resid=    24  9.40306516E-05  3.26030837E-03
 cg2d: Sum(rhs),rhsMax =  -6.11426307120102E+02  2.79195374958372E-01
(PID.TID 0000.0001)      cg2d_init_res =   1.63675574453014E-01
(PID.TID 0000.0001)      cg2d_iters(min,last) =      -1      18
(PID.TID 0000.0001)      cg2d_last_res =   8.01416580306214E-06
(PID.TID 0000.0001) // =======================================================
(PID.TID 0000.0001) // Begin MONITOR dynamic field statistics
(PID.TID 0000.0001) // =======================================================
(PID.TID 0000.0001) %MON time_tsnumber                =                188390
(PID.TID 0000.0001) %MON time_secondsf                =   2.2606800000000E+08
(PID.TID 0000.0001) %MON dynstat_eta_max              =   6.5753928510590E-01
(PID.TID 0000.0001) %MON dynstat_eta_min              =   3.7285258028916E-02
(PID.TID 0000.0001) %MON dynstat_eta_mean             =   3.7231589868100E-01
(PID.TID 0000.0001) %MON dynstat_eta_sd               =   1.5334222496704E-01
(PID.TID 0000.0001) %MON dynstat_eta_del2             =   3.3511777249334E-04
(PID.TID 0000.0001) %MON dynstat_uvel_max             =   3.9790732254653E-01
(PID.TID 0000.0001) %MON dynstat_uvel_min             =  -3.3801872103446E-01
(PID.TID 0000.0001) %MON dynstat_uvel_mean            =   6.2052486441615E-03
(PID.TID 0000.0001) %MON dynstat_uvel_sd              =   6.1766586510362E-02
(PID.TID 0000.0001) %MON dynstat_uvel_del2            =   9.6778395234974E-04
(PID.TID 0000.0001) %MON dynstat_vvel_max             =   2.6031293325461E-01
(PID.TID 0000.0001) %MON dynstat_vvel_min             =  -4.4939896244307E-01
(PID.TID 0000.0001) %MON dynstat_vvel_mean            =   2.2218310449145E-03
(PID.TID 0000.0001) %MON dynstat_vvel_sd              =   6.4108418215624E-02
(PID.TID 0000.0001) %MON dynstat_vvel_del2            =   1.1535015159360E-03
(PID.TID 0000.0001) %MON dynstat_wvel_max             =   4.9715256838498E-04
(PID.TID 0000.0001) %MON dynstat_wvel_min             =  -5.0477188849232E-04
(PID.TID 0000.0001) %MON dynstat_wvel_mean            =  -2.6287179268605E-06
(PID.TID 0000.0001) %MON dynstat_wvel_sd              =   7.5297012393778E-05
(PID.TID 0000.0001) %MON dynstat_wvel_del2            =   2.0335342997880E-06
(PID.TID 0000.0001) %MON dynstat_theta_max            =   7.9701483543624E+00
(PID.TID 0000.0001) %MON dynstat_theta_min            =  -1.6129724060551E+00
(PID.TID 0000.0001) %MON dynstat_theta_mean           =   3.7804412263552E+00
(PID.TID 0000.0001) %MON dynstat_theta_sd             =   2.2013127499935E+00
(PID.TID 0000.0001) %MON dynstat_theta_del2           =   6.0354590603316E-03
(PID.TID 0000.0001) %MON dynstat_salt_max             =   3.4927872001607E+01
(PID.TID 0000.0001) %MON dynstat_salt_min             =   5.6522241760958E+00
(PID.TID 0000.0001) %MON dynstat_salt_mean            =   1.5353242409746E+01
(PID.TID 0000.0001) %MON dynstat_salt_sd              =   1.1951721899272E+01
(PID.TID 0000.0001) %MON dynstat_salt_del2            =   3.5918802246899E-03
(PID.TID 0000.0001) %MON forcing_qnet_max             =   3.7028020120839E+02
(PID.TID 0000.0001) %MON forcing_qnet_min             =  -1.7710527590197E+02
(PID.TID 0000.0001) %MON forcing_qnet_mean            =  -6.0838249819367E+01
(PID.TID 0000.0001) %MON forcing_qnet_sd              =   6.1435531153410E+01
(PID.TID 0000.0001) %MON forcing_qnet_del2            =   1.4125925751106E+00
(PID.TID 0000.0001) %MON forcing_qsw_max              =   0.0000000000000E+00
(PID.TID 0000.0001) %MON forcing_qsw_min              =  -2.0532529254673E+02
(PID.TID 0000.0001) %MON forcing_qsw_mean             =  -1.1158557170641E+02
(PID.TID 0000.0001) %MON forcing_qsw_sd               =   6.2299400708715E+01
(PID.TID 0000.0001) %MON forcing_qsw_del2             =   5.0157751693843E-01
(PID.TID 0000.0001) %MON forcing_empmr_max            =   4.4469658346034E-05
(PID.TID 0000.0001) %MON forcing_empmr_min            =  -1.4296190365170E-03
(PID.TID 0000.0001) %MON forcing_empmr_mean           =  -1.0241775642731E-04
(PID.TID 0000.0001) %MON forcing_empmr_sd             =   1.1445219698747E-04
(PID.TID 0000.0001) %MON forcing_empmr_del2           =   4.4234326127411E-06
(PID.TID 0000.0001) %MON forcing_fu_max               =   2.8348902366519E-01
(PID.TID 0000.0001) %MON forcing_fu_min               =  -6.6108038025097E-02
(PID.TID 0000.0001) %MON forcing_fu_mean              =   8.2468309665477E-02
(PID.TID 0000.0001) %MON forcing_fu_sd                =   8.1719318426259E-02
(PID.TID 0000.0001) %MON forcing_fu_del2              =   2.5302034330932E-04
(PID.TID 0000.0001) %MON forcing_fv_max               =   1.5390988767156E-01
(PID.TID 0000.0001) %MON forcing_fv_min               =  -2.0107973114539E-01
(PID.TID 0000.0001) %MON forcing_fv_mean              =  -3.6597231090475E-02
(PID.TID 0000.0001) %MON forcing_fv_sd                =   6.4520217030561E-02
(PID.TID 0000.0001) %MON forcing_fv_del2              =   2.8421321271929E-04
(PID.TID 0000.0001) %MON advcfl_uvel_max              =   2.3083687229044E-02
(PID.TID 0000.0001) %MON advcfl_vvel_max              =   3.3010931026933E-02
(PID.TID 0000.0001) %MON advcfl_wvel_max              =   5.9658308206197E-02
(PID.TID 0000.0001) %MON advcfl_W_hf_max              =   5.9658308206197E-02
(PID.TID 0000.0001) %MON pe_b_mean                    =   1.3718277942138E-02
(PID.TID 0000.0001) %MON ke_max                       =   1.0891525218911E-01
(PID.TID 0000.0001) %MON ke_mean                      =   3.2189849305004E-03
(PID.TID 0000.0001) %MON ke_vol                       =   2.7634533915294E+13
(PID.TID 0000.0001) %MON vort_r_min                   =  -3.6641347706268E-05
(PID.TID 0000.0001) %MON vort_r_max                   =   3.3043972339691E-05
(PID.TID 0000.0001) %MON vort_a_mean                  =   1.2397552884926E-04
(PID.TID 0000.0001) %MON vort_a_sd                    =   6.2812336434530E-06
(PID.TID 0000.0001) %MON vort_p_mean                  =   1.7325641004044E-04
(PID.TID 0000.0001) %MON vort_p_sd                    =   1.0960327789493E-04
(PID.TID 0000.0001) %MON surfExpan_theta_mean         =  -4.8518607266778E-07
(PID.TID 0000.0001) %MON surfExpan_salt_mean          =   1.4859838298442E-06
(PID.TID 0000.0001) // =======================================================
(PID.TID 0000.0001) // End MONITOR dynamic field statistics
(PID.TID 0000.0001) // =======================================================
(PID.TID 0000.0001) // =======================================================
(PID.TID 0000.0001) // Begin OBCS MONITOR field statistics
(PID.TID 0000.0001) // =======================================================
(PID.TID 0000.0001) %MON obc_W_uVel_max               =   7.0320748349139E-02
(PID.TID 0000.0001) %MON obc_W_uVel_min               =  -1.2524351225708E-02
(PID.TID 0000.0001) %MON obc_W_uVel_mean              =   2.2509707790909E-02
(PID.TID 0000.0001) %MON obc_W_uVel_sd                =   2.5878591693429E-02
(PID.TID 0000.0001) %MON obc_W_uVel_Int               =   4.7341351731862E+04
(PID.TID 0000.0001) %MON obc_N_vVel_max               =   1.8565460835975E-01
(PID.TID 0000.0001) %MON obc_N_vVel_min               =  -2.5376211546484E-01
(PID.TID 0000.0001) %MON obc_N_vVel_mean              =   1.5200265867394E-03
(PID.TID 0000.0001) %MON obc_N_vVel_sd                =   8.5413026868881E-02
(PID.TID 0000.0001) %MON obc_N_vVel_Int               =   4.7687044480410E+04
(PID.TID 0000.0001) // =======================================================
(PID.TID 0000.0001) // End OBCS MONITOR field statistics
(PID.TID 0000.0001) // =======================================================
(PID.TID 0000.0001) // =======================================================
(PID.TID 0000.0001) // Begin MONITOR SEAICE statistics
(PID.TID 0000.0001) // =======================================================
(PID.TID 0000.0001) %MON seaice_tsnumber              =                188390
(PID.TID 0000.0001) %MON seaice_time_sec              =   2.2606800000000E+08
(PID.TID 0000.0001) %MON seaice_uice_max              =   5.6386891459508E-01
(PID.TID 0000.0001) %MON seaice_uice_min              =  -2.5831656597830E-01
(PID.TID 0000.0001) %MON seaice_uice_mean             =   1.2264053680317E-01
(PID.TID 0000.0001) %MON seaice_uice_sd               =   1.1157256186021E-01
(PID.TID 0000.0001) %MON seaice_uice_del2             =   2.7652348139113E-03
(PID.TID 0000.0001) %MON seaice_vice_max              =   3.7917837294441E-01
(PID.TID 0000.0001) %MON seaice_vice_min              =  -5.4586035534231E-01
(PID.TID 0000.0001) %MON seaice_vice_mean             =  -7.1838899467515E-02
(PID.TID 0000.0001) %MON seaice_vice_sd               =   1.1214729981674E-01
(PID.TID 0000.0001) %MON seaice_vice_del2             =   2.9146055378384E-03
(PID.TID 0000.0001) %MON seaice_area_max              =   1.0000000000000E+00
(PID.TID 0000.0001) %MON seaice_area_min              =   0.0000000000000E+00
(PID.TID 0000.0001) %MON seaice_area_mean             =   2.2607004834892E-01
(PID.TID 0000.0001) %MON seaice_area_sd               =   3.8526936244787E-01
(PID.TID 0000.0001) %MON seaice_area_del2             =   4.4740958225281E-03
(PID.TID 0000.0001) %MON seaice_heff_max              =   1.0116189531252E+00
(PID.TID 0000.0001) %MON seaice_heff_min              =   0.0000000000000E+00
(PID.TID 0000.0001) %MON seaice_heff_mean             =   1.2506259010019E-01
(PID.TID 0000.0001) %MON seaice_heff_sd               =   2.4318016664761E-01
(PID.TID 0000.0001) %MON seaice_heff_del2             =   2.2301657268451E-03
(PID.TID 0000.0001) %MON seaice_hsnow_max             =   2.7612757441157E-01
(PID.TID 0000.0001) %MON seaice_hsnow_min             =  -8.4703294725430E-22
(PID.TID 0000.0001) %MON seaice_hsnow_mean            =   3.0780278732383E-02
(PID.TID 0000.0001) %MON seaice_hsnow_sd              =   6.4297026420980E-02
(PID.TID 0000.0001) %MON seaice_hsnow_del2            =   3.7402280668370E-04
(PID.TID 0000.0001) %MON seaice_sitracer01_max        =   2.4000000000000E+03
(PID.TID 0000.0001) %MON seaice_sitracer01_min        =   0.0000000000000E+00
(PID.TID 0000.0001) %MON seaice_sitracer01_mean       =   6.9920362069667E+02
(PID.TID 0000.0001) %MON seaice_sitracer01_sd         =   1.0905040754539E+03
(PID.TID 0000.0001) %MON seaice_sitracer01_del2       =   1.7407747984275E+01
(PID.TID 0000.0001) %MON seaice_sitracer02_max        =   1.0000000000000E+00
(PID.TID 0000.0001) %MON seaice_sitracer02_min        =   0.0000000000000E+00
(PID.TID 0000.0001) %MON seaice_sitracer02_mean       =   3.0038537256134E-01
(PID.TID 0000.0001) %MON seaice_sitracer02_sd         =   4.5842556703627E-01
(PID.TID 0000.0001) %MON seaice_sitracer02_del2       =   6.9322861627375E-03
(PID.TID 0000.0001) // =======================================================
(PID.TID 0000.0001) // End MONITOR SEAICE statistics
(PID.TID 0000.0001) // =======================================================
(PID.TID 0000.0001) // =======================================================
(PID.TID 0000.0001) // Begin MONITOR ptracer field statistics
(PID.TID 0000.0001) // =======================================================
(PID.TID 0000.0001) %MON trcstat_ptracer01_max        =   4.3206107688829E+00
(PID.TID 0000.0001) %MON trcstat_ptracer01_min        =   3.8001661363303E-02
(PID.TID 0000.0001) %MON trcstat_ptracer01_mean       =   5.9106333654824E-01
(PID.TID 0000.0001) %MON trcstat_ptracer01_sd         =   5.1753066337539E-01
(PID.TID 0000.0001) %MON trcstat_ptracer01_del2       =   8.6402129927886E-04
(PID.TID 0000.0001) %MON trcstat_ptracer02_max        =   4.4160523731139E+01
(PID.TID 0000.0001) %MON trcstat_ptracer02_min        =   1.4930485376319E-02
(PID.TID 0000.0001) %MON trcstat_ptracer02_mean       =   4.5817691228037E+00
(PID.TID 0000.0001) %MON trcstat_ptracer02_sd         =   6.6982242566746E+00
(PID.TID 0000.0001) %MON trcstat_ptracer02_del2       =   1.2513568962823E-02
(PID.TID 0000.0001) %MON trcstat_ptracer03_max        =   1.3876604127315E-03
(PID.TID 0000.0001) %MON trcstat_ptracer03_min        =   5.8902087773715E-04
(PID.TID 0000.0001) %MON trcstat_ptracer03_mean       =   1.0854382700877E-03
(PID.TID 0000.0001) %MON trcstat_ptracer03_sd         =   1.4541667887697E-04
(PID.TID 0000.0001) %MON trcstat_ptracer03_del2       =   4.5495969015419E-07
(PID.TID 0000.0001) %MON trcstat_ptracer04_max        =   1.5669603360054E+02
(PID.TID 0000.0001) %MON trcstat_ptracer04_min        =   6.3040892248058E-02
(PID.TID 0000.0001) %MON trcstat_ptracer04_mean       =   1.4711814364170E+01
(PID.TID 0000.0001) %MON trcstat_ptracer04_sd         =   1.7084433970993E+01
(PID.TID 0000.0001) %MON trcstat_ptracer04_del2       =   2.7940992124881E-02
(PID.TID 0000.0001) %MON trcstat_ptracer05_max        =   2.8331674626007E-01
(PID.TID 0000.0001) %MON trcstat_ptracer05_min        =   8.3384008675146E-08
(PID.TID 0000.0001) %MON trcstat_ptracer05_mean       =   5.8400393511387E-02
(PID.TID 0000.0001) %MON trcstat_ptracer05_sd         =   5.6910405806990E-02
(PID.TID 0000.0001) %MON trcstat_ptracer05_del2       =   1.4702373160366E-04
(PID.TID 0000.0001) %MON trcstat_ptracer06_max        =   4.5330679401612E+00
(PID.TID 0000.0001) %MON trcstat_ptracer06_min        =   1.3341441388023E-06
(PID.TID 0000.0001) %MON trcstat_ptracer06_mean       =   9.3440629618218E-01
(PID.TID 0000.0001) %MON trcstat_ptracer06_sd         =   9.1056649291184E-01
(PID.TID 0000.0001) %MON trcstat_ptracer06_del2       =   2.3523797056585E-03
(PID.TID 0000.0001) %MON trcstat_ptracer07_max        =   2.8331674626007E-04
(PID.TID 0000.0001) %MON trcstat_ptracer07_min        =   8.3384008675149E-11
(PID.TID 0000.0001) %MON trcstat_ptracer07_mean       =   5.8400393499651E-05
(PID.TID 0000.0001) %MON trcstat_ptracer07_sd         =   5.6910405861662E-05
(PID.TID 0000.0001) %MON trcstat_ptracer07_del2       =   1.4702373201526E-07
(PID.TID 0000.0001) %MON trcstat_ptracer08_max        =   6.9731585771204E-03
(PID.TID 0000.0001) %MON trcstat_ptracer08_min        =   6.8672819943637E-33
(PID.TID 0000.0001) %MON trcstat_ptracer08_mean       =   4.7069624109279E-04
(PID.TID 0000.0001) %MON trcstat_ptracer08_sd         =   1.1057399319621E-03
(PID.TID 0000.0001) %MON trcstat_ptracer08_del2       =   3.5997060658403E-06
(PID.TID 0000.0001) %MON trcstat_ptracer09_max        =   1.1157053723393E-01
(PID.TID 0000.0001) %MON trcstat_ptracer09_min        =   1.0987651190982E-31
(PID.TID 0000.0001) %MON trcstat_ptracer09_mean       =   7.5311398574846E-03
(PID.TID 0000.0001) %MON trcstat_ptracer09_sd         =   1.7691838911394E-02
(PID.TID 0000.0001) %MON trcstat_ptracer09_del2       =   5.7595297053445E-05
(PID.TID 0000.0001) %MON trcstat_ptracer10_max        =   6.9731585786460E-06
(PID.TID 0000.0001) %MON trcstat_ptracer10_min        =   6.8672819943922E-36
(PID.TID 0000.0001) %MON trcstat_ptracer10_mean       =   4.7069624185776E-07
(PID.TID 0000.0001) %MON trcstat_ptracer10_sd         =   1.1057399334799E-06
(PID.TID 0000.0001) %MON trcstat_ptracer10_del2       =   3.5997060711971E-09
(PID.TID 0000.0001) %MON trcstat_ptracer11_max        =   8.8753987124117E-03
(PID.TID 0000.0001) %MON trcstat_ptracer11_min        =   1.9335491013478E-32
(PID.TID 0000.0001) %MON trcstat_ptracer11_mean       =   3.4617181172846E-04
(PID.TID 0000.0001) %MON trcstat_ptracer11_sd         =   1.3395804039787E-03
(PID.TID 0000.0001) %MON trcstat_ptracer11_del2       =   4.6147691470271E-06
(PID.TID 0000.0001) %MON trcstat_ptracer12_max        =   8.4315327442765E-02
(PID.TID 0000.0001) %MON trcstat_ptracer12_min        =   8.8965394344395E-23
(PID.TID 0000.0001) %MON trcstat_ptracer12_mean       =   1.6997360025715E-03
(PID.TID 0000.0001) %MON trcstat_ptracer12_sd         =   7.4874776514076E-03
(PID.TID 0000.0001) %MON trcstat_ptracer12_del2       =   3.2202462626205E-05
(PID.TID 0000.0001) %MON trcstat_ptracer13_max        =   1.3490452390842E+00
(PID.TID 0000.0001) %MON trcstat_ptracer13_min        =   1.4234463095103E-21
(PID.TID 0000.0001) %MON trcstat_ptracer13_mean       =   2.7195776041144E-02
(PID.TID 0000.0001) %MON trcstat_ptracer13_sd         =   1.1979964242252E-01
(PID.TID 0000.0001) %MON trcstat_ptracer13_del2       =   5.1523940201928E-04
(PID.TID 0000.0001) %MON trcstat_ptracer14_max        =   8.4315327494879E-05
(PID.TID 0000.0001) %MON trcstat_ptracer14_min        =   8.8965394344381E-26
(PID.TID 0000.0001) %MON trcstat_ptracer14_mean       =   1.6997360038744E-06
(PID.TID 0000.0001) %MON trcstat_ptracer14_sd         =   7.4874776549341E-06
(PID.TID 0000.0001) %MON trcstat_ptracer14_del2       =   3.2202462649192E-08
(PID.TID 0000.0001) %MON trcstat_ptracer15_max        =   9.5013007937748E-01
(PID.TID 0000.0001) %MON trcstat_ptracer15_min        =   9.4429105575860E-22
(PID.TID 0000.0001) %MON trcstat_ptracer15_mean       =   1.8546306216470E-02
(PID.TID 0000.0001) %MON trcstat_ptracer15_sd         =   9.2605030747903E-02
(PID.TID 0000.0001) %MON trcstat_ptracer15_del2       =   4.8191091879366E-04
(PID.TID 0000.0001) %MON trcstat_ptracer16_max        =   1.0026360998443E+00
(PID.TID 0000.0001) %MON trcstat_ptracer16_min        =   3.3439816171638E-09
(PID.TID 0000.0001) %MON trcstat_ptracer16_mean       =   2.0447268013883E-02
(PID.TID 0000.0001) %MON trcstat_ptracer16_sd         =   4.9050114672787E-02
(PID.TID 0000.0001) %MON trcstat_ptracer16_del2       =   2.9717389698533E-04
(PID.TID 0000.0001) %MON trcstat_ptracer17_max        =   1.6042177597509E+01
(PID.TID 0000.0001) %MON trcstat_ptracer17_min        =   5.3503705874621E-08
(PID.TID 0000.0001) %MON trcstat_ptracer17_mean       =   3.2715628822212E-01
(PID.TID 0000.0001) %MON trcstat_ptracer17_sd         =   7.8480183476460E-01
(PID.TID 0000.0001) %MON trcstat_ptracer17_del2       =   4.7547823517653E-03
(PID.TID 0000.0001) %MON trcstat_ptracer18_max        =   1.0026360998443E-03
(PID.TID 0000.0001) %MON trcstat_ptracer18_min        =   3.3439816171638E-12
(PID.TID 0000.0001) %MON trcstat_ptracer18_mean       =   2.0447268018492E-05
(PID.TID 0000.0001) %MON trcstat_ptracer18_sd         =   4.9050114669697E-05
(PID.TID 0000.0001) %MON trcstat_ptracer18_del2       =   2.9717389720972E-07
(PID.TID 0000.0001) %MON trcstat_ptracer19_max        =   3.0538380634297E+02
(PID.TID 0000.0001) %MON trcstat_ptracer19_min        =   9.0890755090791E-08
(PID.TID 0000.0001) %MON trcstat_ptracer19_mean       =   2.2924854401050E+00
(PID.TID 0000.0001) %MON trcstat_ptracer19_sd         =   1.2516714389507E+01
(PID.TID 0000.0001) %MON trcstat_ptracer19_del2       =   5.3785759204625E-02
(PID.TID 0000.0001) %MON trcstat_ptracer20_max        =   2.4522901181495E-01
(PID.TID 0000.0001) %MON trcstat_ptracer20_min        =   2.2681447118828E-07
(PID.TID 0000.0001) %MON trcstat_ptracer20_mean       =   1.3591997370230E-02
(PID.TID 0000.0001) %MON trcstat_ptracer20_sd         =   1.7840855951800E-02
(PID.TID 0000.0001) %MON trcstat_ptracer20_del2       =   8.4052614015371E-04
(PID.TID 0000.0001) %MON trcstat_ptracer21_max        =   2.3335987198260E+00
(PID.TID 0000.0001) %MON trcstat_ptracer21_min        =   3.0178475311599E-05
(PID.TID 0000.0001) %MON trcstat_ptracer21_mean       =   1.5996045994835E-01
(PID.TID 0000.0001) %MON trcstat_ptracer21_sd         =   1.8962773589554E-01
(PID.TID 0000.0001) %MON trcstat_ptracer21_del2       =   7.1019200267181E-04
(PID.TID 0000.0001) %MON trcstat_ptracer22_max        =   5.6020047699717E-05
(PID.TID 0000.0001) %MON trcstat_ptracer22_min        =  -2.1068568887938E-19
(PID.TID 0000.0001) %MON trcstat_ptracer22_mean       =   1.2505122427272E-07
(PID.TID 0000.0001) %MON trcstat_ptracer22_sd         =   1.8041892676945E-06
(PID.TID 0000.0001) %MON trcstat_ptracer22_del2       =   4.5272434809613E-08
(PID.TID 0000.0001) %MON trcstat_ptracer23_max        =   5.2384570004979E-04
(PID.TID 0000.0001) %MON trcstat_ptracer23_min        =  -2.2601834208539E-24
(PID.TID 0000.0001) %MON trcstat_ptracer23_mean       =   7.3318152471516E-06
(PID.TID 0000.0001) %MON trcstat_ptracer23_sd         =   3.9902082218824E-05
(PID.TID 0000.0001) %MON trcstat_ptracer23_del2       =   1.8982087404272E-07
(PID.TID 0000.0001) %MON trcstat_ptracer24_max        =   5.6020053799102E-05
(PID.TID 0000.0001) %MON trcstat_ptracer24_min        =   5.7062010634671E-51
(PID.TID 0000.0001) %MON trcstat_ptracer24_mean       =   1.2518225451175E-07
(PID.TID 0000.0001) %MON trcstat_ptracer24_sd         =   1.8041802000134E-06
(PID.TID 0000.0001) %MON trcstat_ptracer24_del2       =   4.5272444872764E-08
(PID.TID 0000.0001) %MON trcstat_ptracer25_max        =   1.4223330381929E-04
(PID.TID 0000.0001) %MON trcstat_ptracer25_min        =   8.0680061096605E-34
(PID.TID 0000.0001) %MON trcstat_ptracer25_mean       =   2.6897644570437E-06
(PID.TID 0000.0001) %MON trcstat_ptracer25_sd         =   1.0786834721153E-05
(PID.TID 0000.0001) %MON trcstat_ptracer25_del2       =   1.0472395489873E-07
(PID.TID 0000.0001) %MON trcstat_ptracer26_max        =   5.2903630708845E-05
(PID.TID 0000.0001) %MON trcstat_ptracer26_min        =  -2.6872973796348E-17
(PID.TID 0000.0001) %MON trcstat_ptracer26_mean       =   1.0703106404424E-07
(PID.TID 0000.0001) %MON trcstat_ptracer26_sd         =   1.6728636006541E-06
(PID.TID 0000.0001) %MON trcstat_ptracer26_del2       =   4.6459969253642E-08
(PID.TID 0000.0001) %MON trcstat_ptracer27_max        =   9.6316502229208E-03
(PID.TID 0000.0001) %MON trcstat_ptracer27_min        =   1.2880839676230E-19
(PID.TID 0000.0001) %MON trcstat_ptracer27_mean       =   2.4592865206462E-04
(PID.TID 0000.0001) %MON trcstat_ptracer27_sd         =   6.7568569295096E-04
(PID.TID 0000.0001) %MON trcstat_ptracer27_del2       =   5.3148110173073E-06
(PID.TID 0000.0001) %MON trcstat_ptracer28_max        =   9.2280137782574E-02
(PID.TID 0000.0001) %MON trcstat_ptracer28_min        =   6.7039063042095E-24
(PID.TID 0000.0001) %MON trcstat_ptracer28_mean       =   1.6173804810303E-03
(PID.TID 0000.0001) %MON trcstat_ptracer28_sd         =   5.8771899752616E-03
(PID.TID 0000.0001) %MON trcstat_ptracer28_del2       =   4.6321363723667E-05
(PID.TID 0000.0001) %MON trcstat_ptracer29_max        =   1.0584613640017E-03
(PID.TID 0000.0001) %MON trcstat_ptracer29_min        =   9.9999999999874E-51
(PID.TID 0000.0001) %MON trcstat_ptracer29_mean       =   3.0068819219556E-06
(PID.TID 0000.0001) %MON trcstat_ptracer29_sd         =   2.4277051708838E-05
(PID.TID 0000.0001) %MON trcstat_ptracer29_del2       =   1.7067416409342E-07
(PID.TID 0000.0001) %MON trcstat_ptracer30_max        =   1.3018673286565E-02
(PID.TID 0000.0001) %MON trcstat_ptracer30_min        =   1.2258472589563E-29
(PID.TID 0000.0001) %MON trcstat_ptracer30_mean       =   1.3915983090729E-04
(PID.TID 0000.0001) %MON trcstat_ptracer30_sd         =   7.2175067062894E-04
(PID.TID 0000.0001) %MON trcstat_ptracer30_del2       =   7.2794553306349E-06
(PID.TID 0000.0001) %MON trcstat_ptracer31_max        =   5.4938012929095E-05
(PID.TID 0000.0001) %MON trcstat_ptracer31_min        =   1.2576819325330E-14
(PID.TID 0000.0001) %MON trcstat_ptracer31_mean       =   1.1866439091235E-07
(PID.TID 0000.0001) %MON trcstat_ptracer31_sd         =   1.7764343791435E-06
(PID.TID 0000.0001) %MON trcstat_ptracer31_del2       =   4.5711104867481E-08
(PID.TID 0000.0001) %MON trcstat_ptracer32_max        =   5.4137282186494E-05
(PID.TID 0000.0001) %MON trcstat_ptracer32_min        =  -5.4490588694353E-19
(PID.TID 0000.0001) %MON trcstat_ptracer32_mean       =   1.1602427411713E-07
(PID.TID 0000.0001) %MON trcstat_ptracer32_sd         =   1.7552175705003E-06
(PID.TID 0000.0001) %MON trcstat_ptracer32_del2       =   4.5434612037039E-08
(PID.TID 0000.0001) %MON trcstat_ptracer33_max        =   5.2505284798642E-05
(PID.TID 0000.0001) %MON trcstat_ptracer33_min        =  -2.0620699379645E-21
(PID.TID 0000.0001) %MON trcstat_ptracer33_mean       =   1.0643388511090E-07
(PID.TID 0000.0001) %MON trcstat_ptracer33_sd         =   1.6620707852036E-06
(PID.TID 0000.0001) %MON trcstat_ptracer33_del2       =   4.6262090411241E-08
(PID.TID 0000.0001) %MON trcstat_ptracer34_max        =   5.5995201629647E-05
(PID.TID 0000.0001) %MON trcstat_ptracer34_min        =   5.6881260377382E-51
(PID.TID 0000.0001) %MON trcstat_ptracer34_mean       =   1.2505196124496E-07
(PID.TID 0000.0001) %MON trcstat_ptracer34_sd         =   1.8046601611950E-06
(PID.TID 0000.0001) %MON trcstat_ptracer34_del2       =   4.5249609730525E-08
(PID.TID 0000.0001) %MON trcstat_ptracer35_max        =   5.2961227978786E-05
(PID.TID 0000.0001) %MON trcstat_ptracer35_min        =  -2.5988102770186E-17
(PID.TID 0000.0001) %MON trcstat_ptracer35_mean       =   1.0704819076512E-07
(PID.TID 0000.0001) %MON trcstat_ptracer35_sd         =   1.6721750768215E-06
(PID.TID 0000.0001) %MON trcstat_ptracer35_del2       =   4.6410214516294E-08
(PID.TID 0000.0001) %MON trcstat_ptracer36_max        =   5.5995201618319E-05
(PID.TID 0000.0001) %MON trcstat_ptracer36_min        =  -5.8860784472533E-19
(PID.TID 0000.0001) %MON trcstat_ptracer36_mean       =   1.2496519050953E-07
(PID.TID 0000.0001) %MON trcstat_ptracer36_sd         =   1.8032461066707E-06
(PID.TID 0000.0001) %MON trcstat_ptracer36_del2       =   4.5273380366906E-08
(PID.TID 0000.0001) %MON trcstat_ptracer37_max        =   5.6885659090349E-05
(PID.TID 0000.0001) %MON trcstat_ptracer37_min        =  -3.8816317944804E-36
(PID.TID 0000.0001) %MON trcstat_ptracer37_mean       =   1.2930166209074E-07
(PID.TID 0000.0001) %MON trcstat_ptracer37_sd         =   1.8264823908365E-06
(PID.TID 0000.0001) %MON trcstat_ptracer37_del2       =   4.5551263990970E-08
(PID.TID 0000.0001) %MON trcstat_ptracer38_max        =   7.1058119497122E-05
(PID.TID 0000.0001) %MON trcstat_ptracer38_min        =   9.8830529400761E-51
(PID.TID 0000.0001) %MON trcstat_ptracer38_mean       =   1.7605583710193E-07
(PID.TID 0000.0001) %MON trcstat_ptracer38_sd         =   2.2665182590888E-06
(PID.TID 0000.0001) %MON trcstat_ptracer38_del2       =   4.3374485814649E-08
(PID.TID 0000.0001) %MON trcstat_ptracer39_max        =   2.8278881635867E-03
(PID.TID 0000.0001) %MON trcstat_ptracer39_min        =   7.4217719621424E-33
(PID.TID 0000.0001) %MON trcstat_ptracer39_mean       =   1.8702770932183E-05
(PID.TID 0000.0001) %MON trcstat_ptracer39_sd         =   1.3548139048308E-04
(PID.TID 0000.0001) %MON trcstat_ptracer39_del2       =   1.0140489842323E-06
(PID.TID 0000.0001) %MON trcstat_ptracer40_max        =   5.5995201618343E-05
(PID.TID 0000.0001) %MON trcstat_ptracer40_min        =  -7.0886205306079E-19
(PID.TID 0000.0001) %MON trcstat_ptracer40_mean       =   1.2496518882615E-07
(PID.TID 0000.0001) %MON trcstat_ptracer40_sd         =   1.8032461067955E-06
(PID.TID 0000.0001) %MON trcstat_ptracer40_del2       =   4.5273380366716E-08
(PID.TID 0000.0001) %MON trcstat_ptracer41_max        =   5.6050378759069E-05
(PID.TID 0000.0001) %MON trcstat_ptracer41_min        =  -4.8650340804781E-18
(PID.TID 0000.0001) %MON trcstat_ptracer41_mean       =   1.2515547364436E-07
(PID.TID 0000.0001) %MON trcstat_ptracer41_sd         =   1.8052202030461E-06
(PID.TID 0000.0001) %MON trcstat_ptracer41_del2       =   4.5251346455616E-08
(PID.TID 0000.0001) %MON trcstat_ptracer42_max        =   5.2959337638638E-05
(PID.TID 0000.0001) %MON trcstat_ptracer42_min        =   7.4365445582079E-17
(PID.TID 0000.0001) %MON trcstat_ptracer42_mean       =   1.0779500903952E-07
(PID.TID 0000.0001) %MON trcstat_ptracer42_sd         =   1.6693528098634E-06
(PID.TID 0000.0001) %MON trcstat_ptracer42_del2       =   4.6494068386311E-08
(PID.TID 0000.0001) %MON trcstat_ptracer43_max        =   1.0381434982895E-03
(PID.TID 0000.0001) %MON trcstat_ptracer43_min        =   5.4239768244358E-14
(PID.TID 0000.0001) %MON trcstat_ptracer43_mean       =   2.2970861544560E-05
(PID.TID 0000.0001) %MON trcstat_ptracer43_sd         =   8.2433757530663E-05
(PID.TID 0000.0001) %MON trcstat_ptracer43_del2       =   6.4514658270934E-07
(PID.TID 0000.0001) %MON trcstat_ptracer44_max        =   5.5995202277218E-05
(PID.TID 0000.0001) %MON trcstat_ptracer44_min        =  -1.3558520158724E-31
(PID.TID 0000.0001) %MON trcstat_ptracer44_mean       =   1.2498428666298E-07
(PID.TID 0000.0001) %MON trcstat_ptracer44_sd         =   1.8032447902792E-06
(PID.TID 0000.0001) %MON trcstat_ptracer44_del2       =   4.5273381134182E-08
(PID.TID 0000.0001) %MON trcstat_ptracer45_max        =   1.0517267577609E-04
(PID.TID 0000.0001) %MON trcstat_ptracer45_min        =  -5.3349678681461E-44
(PID.TID 0000.0001) %MON trcstat_ptracer45_mean       =   3.7056411648436E-07
(PID.TID 0000.0001) %MON trcstat_ptracer45_sd         =   3.9345606913724E-06
(PID.TID 0000.0001) %MON trcstat_ptracer45_del2       =   4.5942459978033E-08
(PID.TID 0000.0001) %MON trcstat_ptracer46_max        =   5.4536819280409E-05
(PID.TID 0000.0001) %MON trcstat_ptracer46_min        =  -6.1880012547892E-21
(PID.TID 0000.0001) %MON trcstat_ptracer46_mean       =   1.1670817173695E-07
(PID.TID 0000.0001) %MON trcstat_ptracer46_sd         =   1.7667207016983E-06
(PID.TID 0000.0001) %MON trcstat_ptracer46_del2       =   4.5597132954352E-08
(PID.TID 0000.0001) %MON trcstat_ptracer47_max        =   5.6020047687861E-05
(PID.TID 0000.0001) %MON trcstat_ptracer47_min        =  -5.1793911224599E-19
(PID.TID 0000.0001) %MON trcstat_ptracer47_mean       =   1.2505076681911E-07
(PID.TID 0000.0001) %MON trcstat_ptracer47_sd         =   1.8041893000225E-06
(PID.TID 0000.0001) %MON trcstat_ptracer47_del2       =   4.5272434758091E-08
(PID.TID 0000.0001) %MON trcstat_ptracer48_max        =   5.6020047691697E-05
(PID.TID 0000.0001) %MON trcstat_ptracer48_min        =  -7.7572213558642E-35
(PID.TID 0000.0001) %MON trcstat_ptracer48_mean       =   1.2505121369293E-07
(PID.TID 0000.0001) %MON trcstat_ptracer48_sd         =   1.8041892685163E-06
(PID.TID 0000.0001) %MON trcstat_ptracer48_del2       =   4.5272434782451E-08
(PID.TID 0000.0001) %MON trcstat_ptracer49_max        =   5.6020634480025E-05
(PID.TID 0000.0001) %MON trcstat_ptracer49_min        =   7.8262132573218E-51
(PID.TID 0000.0001) %MON trcstat_ptracer49_mean       =   1.3850676703095E-07
(PID.TID 0000.0001) %MON trcstat_ptracer49_sd         =   1.8039784294743E-06
(PID.TID 0000.0001) %MON trcstat_ptracer49_del2       =   4.5274983398027E-08
(PID.TID 0000.0001) %MON trcstat_ptracer50_max        =   5.6621639691461E-05
(PID.TID 0000.0001) %MON trcstat_ptracer50_min        =   9.6060816877818E-51
(PID.TID 0000.0001) %MON trcstat_ptracer50_mean       =   1.6476438068765E-07
(PID.TID 0000.0001) %MON trcstat_ptracer50_sd         =   2.2635243848133E-06
(PID.TID 0000.0001) %MON trcstat_ptracer50_del2       =   4.1046816998544E-08
(PID.TID 0000.0001) %MON trcstat_ptracer51_max        =   5.6087947617953E-05
(PID.TID 0000.0001) %MON trcstat_ptracer51_min        =   1.0000000770507E-50
(PID.TID 0000.0001) %MON trcstat_ptracer51_mean       =   1.4051102817928E-07
(PID.TID 0000.0001) %MON trcstat_ptracer51_sd         =   1.8103292353743E-06
(PID.TID 0000.0001) %MON trcstat_ptracer51_del2       =   4.5241882434003E-08
(PID.TID 0000.0001) %MON trcstat_ptracer52_max        =   5.7694841044788E-05
(PID.TID 0000.0001) %MON trcstat_ptracer52_min        =   4.5008503627555E-50
(PID.TID 0000.0001) %MON trcstat_ptracer52_mean       =   1.4650759903322E-07
(PID.TID 0000.0001) %MON trcstat_ptracer52_sd         =   2.1419754182770E-06
(PID.TID 0000.0001) %MON trcstat_ptracer52_del2       =   4.1920581178483E-08
(PID.TID 0000.0001) %MON trcstat_ptracer53_max        =   5.2505284800508E-05
(PID.TID 0000.0001) %MON trcstat_ptracer53_min        =  -2.5758144750197E-17
(PID.TID 0000.0001) %MON trcstat_ptracer53_mean       =   1.0643388494898E-07
(PID.TID 0000.0001) %MON trcstat_ptracer53_sd         =   1.6620707852880E-06
(PID.TID 0000.0001) %MON trcstat_ptracer53_del2       =   4.6262090410659E-08
(PID.TID 0000.0001) %MON trcstat_ptracer54_max        =   5.6020047688812E-05
(PID.TID 0000.0001) %MON trcstat_ptracer54_min        =  -4.2532941173473E-18
(PID.TID 0000.0001) %MON trcstat_ptracer54_mean       =   1.2505074844350E-07
(PID.TID 0000.0001) %MON trcstat_ptracer54_sd         =   1.8041893014191E-06
(PID.TID 0000.0001) %MON trcstat_ptracer54_del2       =   4.5272434755635E-08
(PID.TID 0000.0001) %MON trcstat_ptracer55_max        =   5.2505284800317E-05
(PID.TID 0000.0001) %MON trcstat_ptracer55_min        =  -2.1333050057504E-23
(PID.TID 0000.0001) %MON trcstat_ptracer55_mean       =   1.0643388526473E-07
(PID.TID 0000.0001) %MON trcstat_ptracer55_sd         =   1.6620707852650E-06
(PID.TID 0000.0001) %MON trcstat_ptracer55_del2       =   4.6262090410668E-08
(PID.TID 0000.0001) %MON trcstat_ptracer56_max        =   2.9277386498919E-02
(PID.TID 0000.0001) %MON trcstat_ptracer56_min        =   4.4579408817852E-41
(PID.TID 0000.0001) %MON trcstat_ptracer56_mean       =   3.3219575881575E-04
(PID.TID 0000.0001) %MON trcstat_ptracer56_sd         =   1.8437557049844E-03
(PID.TID 0000.0001) %MON trcstat_ptracer56_del2       =   9.4361175914990E-06
(PID.TID 0000.0001) %MON trcstat_ptracer57_max        =   5.3277672277992E-04
(PID.TID 0000.0001) %MON trcstat_ptracer57_min        =   1.6274199853573E-44
(PID.TID 0000.0001) %MON trcstat_ptracer57_mean       =   9.6466948724457E-07
(PID.TID 0000.0001) %MON trcstat_ptracer57_sd         =   9.6232135993071E-06
(PID.TID 0000.0001) %MON trcstat_ptracer57_del2       =   8.9440511258235E-08
(PID.TID 0000.0001) %MON trcstat_ptracer58_max        =   1.0747254483319E-04
(PID.TID 0000.0001) %MON trcstat_ptracer58_min        =   9.9270154156014E-34
(PID.TID 0000.0001) %MON trcstat_ptracer58_mean       =   2.1937379284991E-07
(PID.TID 0000.0001) %MON trcstat_ptracer58_sd         =   3.3153447306181E-06
(PID.TID 0000.0001) %MON trcstat_ptracer58_del2       =   4.4293039031809E-08
(PID.TID 0000.0001) %MON trcstat_ptracer59_max        =   7.8253989145087E-05
(PID.TID 0000.0001) %MON trcstat_ptracer59_min        =   9.7961319724099E-51
(PID.TID 0000.0001) %MON trcstat_ptracer59_mean       =   2.0494397557102E-07
(PID.TID 0000.0001) %MON trcstat_ptracer59_sd         =   2.5649805725111E-06
(PID.TID 0000.0001) %MON trcstat_ptracer59_del2       =   4.1621923436314E-08
(PID.TID 0000.0001) %MON trcstat_ptracer60_max        =   7.7014772033700E-05
(PID.TID 0000.0001) %MON trcstat_ptracer60_min        =  -6.1992234955828E-32
(PID.TID 0000.0001) %MON trcstat_ptracer60_mean       =   2.0707165147185E-07
(PID.TID 0000.0001) %MON trcstat_ptracer60_sd         =   2.9435771471095E-06
(PID.TID 0000.0001) %MON trcstat_ptracer60_del2       =   3.9596850632731E-08
(PID.TID 0000.0001) %MON trcstat_ptracer61_max        =   6.8993092858665E-05
(PID.TID 0000.0001) %MON trcstat_ptracer61_min        =   6.6453396866095E-30
(PID.TID 0000.0001) %MON trcstat_ptracer61_mean       =   1.5230723681085E-07
(PID.TID 0000.0001) %MON trcstat_ptracer61_sd         =   2.3893447083927E-06
(PID.TID 0000.0001) %MON trcstat_ptracer61_del2       =   4.1324660660212E-08
(PID.TID 0000.0001) %MON trcstat_ptracer62_max        =   6.9422793212368E-05
(PID.TID 0000.0001) %MON trcstat_ptracer62_min        =   9.9280135809566E-51
(PID.TID 0000.0001) %MON trcstat_ptracer62_mean       =   1.7118586398453E-07
(PID.TID 0000.0001) %MON trcstat_ptracer62_sd         =   2.2107190702491E-06
(PID.TID 0000.0001) %MON trcstat_ptracer62_del2       =   4.3924055598822E-08
(PID.TID 0000.0001) %MON trcstat_ptracer63_max        =   6.7706232882812E-05
(PID.TID 0000.0001) %MON trcstat_ptracer63_min        =   9.5791052784708E-51
(PID.TID 0000.0001) %MON trcstat_ptracer63_mean       =   2.4318645130804E-07
(PID.TID 0000.0001) %MON trcstat_ptracer63_sd         =   2.9690967485447E-06
(PID.TID 0000.0001) %MON trcstat_ptracer63_del2       =   3.8551986058907E-08
(PID.TID 0000.0001) %MON trcstat_ptracer64_max        =   4.6369085130536E-04
(PID.TID 0000.0001) %MON trcstat_ptracer64_min        =  -1.7896198135753E-24
(PID.TID 0000.0001) %MON trcstat_ptracer64_mean       =   1.8244399893530E-06
(PID.TID 0000.0001) %MON trcstat_ptracer64_sd         =   1.7099046702427E-05
(PID.TID 0000.0001) %MON trcstat_ptracer64_del2       =   2.2767808309626E-07
(PID.TID 0000.0001) %MON trcstat_ptracer65_max        =   5.4166594945472E-05
(PID.TID 0000.0001) %MON trcstat_ptracer65_min        =   4.1129640292141E-18
(PID.TID 0000.0001) %MON trcstat_ptracer65_mean       =   1.1612057176544E-07
(PID.TID 0000.0001) %MON trcstat_ptracer65_sd         =   1.7561562718400E-06
(PID.TID 0000.0001) %MON trcstat_ptracer65_del2       =   4.5413427594583E-08
(PID.TID 0000.0001) %MON trcstat_ptracer66_max        =   5.6050378758094E-05
(PID.TID 0000.0001) %MON trcstat_ptracer66_min        =  -5.1234188284283E-19
(PID.TID 0000.0001) %MON trcstat_ptracer66_mean       =   1.2515549927585E-07
(PID.TID 0000.0001) %MON trcstat_ptracer66_sd         =   1.8052202011141E-06
(PID.TID 0000.0001) %MON trcstat_ptracer66_del2       =   4.5251346459005E-08
(PID.TID 0000.0001) %MON trcstat_ptracer67_max        =   5.2505284800074E-05
(PID.TID 0000.0001) %MON trcstat_ptracer67_min        =  -2.6402519620607E-17
(PID.TID 0000.0001) %MON trcstat_ptracer67_mean       =   1.0643968718573E-07
(PID.TID 0000.0001) %MON trcstat_ptracer67_sd         =   1.6621611077412E-06
(PID.TID 0000.0001) %MON trcstat_ptracer67_del2       =   4.6259890879760E-08
(PID.TID 0000.0001) %MON trcstat_ptracer68_max        =   5.2952886312692E-05
(PID.TID 0000.0001) %MON trcstat_ptracer68_min        =  -6.3911898894539E-25
(PID.TID 0000.0001) %MON trcstat_ptracer68_mean       =   1.0739268308143E-07
(PID.TID 0000.0001) %MON trcstat_ptracer68_sd         =   1.6776433144116E-06
(PID.TID 0000.0001) %MON trcstat_ptracer68_del2       =   4.6358599717921E-08
(PID.TID 0000.0001) %MON trcstat_ptracer69_max        =   5.6050378757003E-05
(PID.TID 0000.0001) %MON trcstat_ptracer69_min        =  -5.8636483185960E-19
(PID.TID 0000.0001) %MON trcstat_ptracer69_mean       =   1.2515547847082E-07
(PID.TID 0000.0001) %MON trcstat_ptracer69_sd         =   1.8052202025322E-06
(PID.TID 0000.0001) %MON trcstat_ptracer69_del2       =   4.5251346457152E-08
(PID.TID 0000.0001) %MON trcstat_ptracer70_max        =   5.6020047688893E-05
(PID.TID 0000.0001) %MON trcstat_ptracer70_min        =  -2.6725416286017E-18
(PID.TID 0000.0001) %MON trcstat_ptracer70_mean       =   1.2505074845985E-07
(PID.TID 0000.0001) %MON trcstat_ptracer70_sd         =   1.8041893014241E-06
(PID.TID 0000.0001) %MON trcstat_ptracer70_del2       =   4.5272434755612E-08
(PID.TID 0000.0001) %MON trcstat_ptracer71_max        =   1.1485998180849E-04
(PID.TID 0000.0001) %MON trcstat_ptracer71_min        =   7.8219052380463E-31
(PID.TID 0000.0001) %MON trcstat_ptracer71_mean       =   2.5018663726600E-07
(PID.TID 0000.0001) %MON trcstat_ptracer71_sd         =   3.5040883430489E-06
(PID.TID 0000.0001) %MON trcstat_ptracer71_del2       =   4.6046833543536E-08
(PID.TID 0000.0001) %MON trcstat_ptracer72_max        =   5.6132628934336E-05
(PID.TID 0000.0001) %MON trcstat_ptracer72_min        =   9.9844323412542E-51
(PID.TID 0000.0001) %MON trcstat_ptracer72_mean       =   1.2523209730126E-07
(PID.TID 0000.0001) %MON trcstat_ptracer72_sd         =   1.8061713082082E-06
(PID.TID 0000.0001) %MON trcstat_ptracer72_del2       =   4.5268107967123E-08
(PID.TID 0000.0001) %MON trcstat_ptracer73_max        =   1.9196898440773E-02
(PID.TID 0000.0001) %MON trcstat_ptracer73_min        =  -3.8575635741714E-19
(PID.TID 0000.0001) %MON trcstat_ptracer73_mean       =   6.2675891367612E-04
(PID.TID 0000.0001) %MON trcstat_ptracer73_sd         =   1.6826185524153E-03
(PID.TID 0000.0001) %MON trcstat_ptracer73_del2       =   1.0085688526259E-05
(PID.TID 0000.0001) %MON trcstat_ptracer74_max        =   5.4166590547537E-05
(PID.TID 0000.0001) %MON trcstat_ptracer74_min        =  -1.3361676678101E-18
(PID.TID 0000.0001) %MON trcstat_ptracer74_mean       =   1.1611331491487E-07
(PID.TID 0000.0001) %MON trcstat_ptracer74_sd         =   1.7561563983466E-06
(PID.TID 0000.0001) %MON trcstat_ptracer74_del2       =   4.5413429574514E-08
(PID.TID 0000.0001) %MON trcstat_ptracer75_max        =   5.4207336875488E-05
(PID.TID 0000.0001) %MON trcstat_ptracer75_min        =   4.9786457521258E-37
(PID.TID 0000.0001) %MON trcstat_ptracer75_mean       =   1.3863179581742E-07
(PID.TID 0000.0001) %MON trcstat_ptracer75_sd         =   1.8217133906713E-06
(PID.TID 0000.0001) %MON trcstat_ptracer75_del2       =   4.4544200620215E-08
(PID.TID 0000.0001) %MON trcstat_ptracer76_max        =   5.2476877121612E-05
(PID.TID 0000.0001) %MON trcstat_ptracer76_min        =  -2.4503031744746E-19
(PID.TID 0000.0001) %MON trcstat_ptracer76_mean       =   1.0635579310647E-07
(PID.TID 0000.0001) %MON trcstat_ptracer76_sd         =   1.6611885465367E-06
(PID.TID 0000.0001) %MON trcstat_ptracer76_del2       =   4.6282486714993E-08
(PID.TID 0000.0001) %MON trcstat_ptracer77_max        =   5.2453604903255E-05
(PID.TID 0000.0001) %MON trcstat_ptracer77_min        =   6.7777831986798E-29
(PID.TID 0000.0001) %MON trcstat_ptracer77_mean       =   1.0628933861655E-07
(PID.TID 0000.0001) %MON trcstat_ptracer77_sd         =   1.6603479088317E-06
(PID.TID 0000.0001) %MON trcstat_ptracer77_del2       =   4.6283313120054E-08
(PID.TID 0000.0001) %MON trcstat_ptracer78_max        =   5.2505284683982E-05
(PID.TID 0000.0001) %MON trcstat_ptracer78_min        =  -1.3674429710767E-17
(PID.TID 0000.0001) %MON trcstat_ptracer78_mean       =   1.0648977412665E-07
(PID.TID 0000.0001) %MON trcstat_ptracer78_sd         =   1.6631083248071E-06
(PID.TID 0000.0001) %MON trcstat_ptracer78_del2       =   4.6261384474825E-08
(PID.TID 0000.0001) %MON trcstat_ptracer79_max        =   9.5549849377593E-02
(PID.TID 0000.0001) %MON trcstat_ptracer79_min        =   3.2555723393472E-15
(PID.TID 0000.0001) %MON trcstat_ptracer79_mean       =   6.7726683486481E-03
(PID.TID 0000.0001) %MON trcstat_ptracer79_sd         =   1.0374851631765E-02
(PID.TID 0000.0001) %MON trcstat_ptracer79_del2       =   6.2455552596737E-05
(PID.TID 0000.0001) %MON trcstat_ptracer80_max        =   5.6477015901630E-05
(PID.TID 0000.0001) %MON trcstat_ptracer80_min        =  -1.4822590632142E-23
(PID.TID 0000.0001) %MON trcstat_ptracer80_mean       =   1.2577894974973E-07
(PID.TID 0000.0001) %MON trcstat_ptracer80_sd         =   1.8171286364319E-06
(PID.TID 0000.0001) %MON trcstat_ptracer80_del2       =   4.5453855361889E-08
(PID.TID 0000.0001) %MON trcstat_ptracer81_max        =   5.6214777938039E-05
(PID.TID 0000.0001) %MON trcstat_ptracer81_min        =   8.7277361438844E-51
(PID.TID 0000.0001) %MON trcstat_ptracer81_mean       =   1.4147619023142E-07
(PID.TID 0000.0001) %MON trcstat_ptracer81_sd         =   2.0152698388631E-06
(PID.TID 0000.0001) %MON trcstat_ptracer81_del2       =   4.2916901375148E-08
(PID.TID 0000.0001) %MON trcstat_ptracer82_max        =   1.4737473188142E-04
(PID.TID 0000.0001) %MON trcstat_ptracer82_min        =  -2.8871580475939E-41
(PID.TID 0000.0001) %MON trcstat_ptracer82_mean       =   5.2130075337176E-07
(PID.TID 0000.0001) %MON trcstat_ptracer82_sd         =   5.2397736357929E-06
(PID.TID 0000.0001) %MON trcstat_ptracer82_del2       =   4.5843011143000E-08
(PID.TID 0000.0001) %MON trcstat_ptracer83_max        =   2.1112342606755E-02
(PID.TID 0000.0001) %MON trcstat_ptracer83_min        =   2.1670292491095E-35
(PID.TID 0000.0001) %MON trcstat_ptracer83_mean       =   1.3334580806771E-04
(PID.TID 0000.0001) %MON trcstat_ptracer83_sd         =   8.3492071385390E-04
(PID.TID 0000.0001) %MON trcstat_ptracer83_del2       =   4.8848897948746E-06
(PID.TID 0000.0001) %MON trcstat_ptracer84_max        =   1.9401217870760E-04
(PID.TID 0000.0001) %MON trcstat_ptracer84_min        =  -3.5834620387470E-28
(PID.TID 0000.0001) %MON trcstat_ptracer84_mean       =   5.4178723076494E-07
(PID.TID 0000.0001) %MON trcstat_ptracer84_sd         =   6.6383564605629E-06
(PID.TID 0000.0001) %MON trcstat_ptracer84_del2       =   7.2893154976563E-08
(PID.TID 0000.0001) %MON trcstat_ptracer85_max        =   5.6835225964819E-05
(PID.TID 0000.0001) %MON trcstat_ptracer85_min        =   8.4293962389124E-51
(PID.TID 0000.0001) %MON trcstat_ptracer85_mean       =   1.2654899658245E-07
(PID.TID 0000.0001) %MON trcstat_ptracer85_sd         =   1.8213178772922E-06
(PID.TID 0000.0001) %MON trcstat_ptracer85_del2       =   4.5596982998028E-08
(PID.TID 0000.0001) %MON trcstat_ptracer86_max        =   5.2505284800527E-05
(PID.TID 0000.0001) %MON trcstat_ptracer86_min        =  -2.5751628314290E-17
(PID.TID 0000.0001) %MON trcstat_ptracer86_mean       =   1.0643388494911E-07
(PID.TID 0000.0001) %MON trcstat_ptracer86_sd         =   1.6620707852894E-06
(PID.TID 0000.0001) %MON trcstat_ptracer86_del2       =   4.6262090410646E-08
(PID.TID 0000.0001) %MON trcstat_ptracer87_max        =   5.6092065049199E-05
(PID.TID 0000.0001) %MON trcstat_ptracer87_min        =  -1.8778578204708E-18
(PID.TID 0000.0001) %MON trcstat_ptracer87_mean       =   1.2550385786301E-07
(PID.TID 0000.0001) %MON trcstat_ptracer87_sd         =   1.8107401738921E-06
(PID.TID 0000.0001) %MON trcstat_ptracer87_del2       =   4.5241255664871E-08
(PID.TID 0000.0001) %MON trcstat_ptracer88_max        =   5.6503704304296E-05
(PID.TID 0000.0001) %MON trcstat_ptracer88_min        =  -1.1355362096727E-18
(PID.TID 0000.0001) %MON trcstat_ptracer88_mean       =   1.2616792112035E-07
(PID.TID 0000.0001) %MON trcstat_ptracer88_sd         =   1.8209098097316E-06
(PID.TID 0000.0001) %MON trcstat_ptracer88_del2       =   4.5343838773963E-08
(PID.TID 0000.0001) %MON trcstat_ptracer89_max        =   6.2886581045961E-02
(PID.TID 0000.0001) %MON trcstat_ptracer89_min        =   4.6202293042730E-30
(PID.TID 0000.0001) %MON trcstat_ptracer89_mean       =   3.6762608764696E-03
(PID.TID 0000.0001) %MON trcstat_ptracer89_sd         =   7.9705184029773E-03
(PID.TID 0000.0001) %MON trcstat_ptracer89_del2       =   2.9988269402342E-05
(PID.TID 0000.0001) %MON trcstat_ptracer90_max        =   5.4896292498643E-05
(PID.TID 0000.0001) %MON trcstat_ptracer90_min        =  -1.3589440172057E-18
(PID.TID 0000.0001) %MON trcstat_ptracer90_mean       =   1.1729588167721E-07
(PID.TID 0000.0001) %MON trcstat_ptracer90_sd         =   1.7756595648554E-06
(PID.TID 0000.0001) %MON trcstat_ptracer90_del2       =   4.5703566504403E-08
(PID.TID 0000.0001) %MON trcstat_ptracer91_max        =   2.4334020055514E-04
(PID.TID 0000.0001) %MON trcstat_ptracer91_min        =   2.3635032716173E-24
(PID.TID 0000.0001) %MON trcstat_ptracer91_mean       =   5.5626648209908E-07
(PID.TID 0000.0001) %MON trcstat_ptracer91_sd         =   7.1701747346545E-06
(PID.TID 0000.0001) %MON trcstat_ptracer91_del2       =   9.8904783375507E-08
(PID.TID 0000.0001) %MON trcstat_ptracer92_max        =   3.2567211795903E-04
(PID.TID 0000.0001) %MON trcstat_ptracer92_min        =   8.9658367051636E-43
(PID.TID 0000.0001) %MON trcstat_ptracer92_mean       =   1.6504506090891E-06
(PID.TID 0000.0001) %MON trcstat_ptracer92_sd         =   1.3629836402840E-05
(PID.TID 0000.0001) %MON trcstat_ptracer92_del2       =   1.0140187637508E-07
(PID.TID 0000.0001) %MON trcstat_ptracer93_max        =   7.3773253429565E-03
(PID.TID 0000.0001) %MON trcstat_ptracer93_min        =   3.4057203728481E-33
(PID.TID 0000.0001) %MON trcstat_ptracer93_mean       =   1.0759936667461E-04
(PID.TID 0000.0001) %MON trcstat_ptracer93_sd         =   4.2636308274419E-04
(PID.TID 0000.0001) %MON trcstat_ptracer93_del2       =   3.4032820287699E-06
(PID.TID 0000.0001) %MON trcstat_ptracer94_max        =   5.2505291098963E-05
(PID.TID 0000.0001) %MON trcstat_ptracer94_min        =   1.2412228051201E-28
(PID.TID 0000.0001) %MON trcstat_ptracer94_mean       =   1.0643506709309E-07
(PID.TID 0000.0001) %MON trcstat_ptracer94_sd         =   1.6620711263470E-06
(PID.TID 0000.0001) %MON trcstat_ptracer94_del2       =   4.6262088292700E-08
(PID.TID 0000.0001) %MON trcstat_ptracer95_max        =   5.5995201619509E-05
(PID.TID 0000.0001) %MON trcstat_ptracer95_min        =  -4.2349792754670E-18
(PID.TID 0000.0001) %MON trcstat_ptracer95_mean       =   1.2496518794587E-07
(PID.TID 0000.0001) %MON trcstat_ptracer95_sd         =   1.8032461069501E-06
(PID.TID 0000.0001) %MON trcstat_ptracer95_del2       =   4.5273380366209E-08
(PID.TID 0000.0001) %MON trcstat_ptracer96_max        =   5.2505284799765E-05
(PID.TID 0000.0001) %MON trcstat_ptracer96_min        =  -2.6872430497332E-17
(PID.TID 0000.0001) %MON trcstat_ptracer96_mean       =   1.0643388494684E-07
(PID.TID 0000.0001) %MON trcstat_ptracer96_sd         =   1.6620707852571E-06
(PID.TID 0000.0001) %MON trcstat_ptracer96_del2       =   4.6262090410954E-08
(PID.TID 0000.0001) %MON trcstat_ptracer97_max        =   8.1117530966171E-04
(PID.TID 0000.0001) %MON trcstat_ptracer97_min        =   1.0000000000689E-50
(PID.TID 0000.0001) %MON trcstat_ptracer97_mean       =   1.5762483498684E-06
(PID.TID 0000.0001) %MON trcstat_ptracer97_sd         =   1.5846654174919E-05
(PID.TID 0000.0001) %MON trcstat_ptracer97_del2       =   1.3286541457451E-07
(PID.TID 0000.0001) %MON trcstat_ptracer98_max        =   7.3610801180086E-05
(PID.TID 0000.0001) %MON trcstat_ptracer98_min        =  -1.0142730154828E-23
(PID.TID 0000.0001) %MON trcstat_ptracer98_mean       =   2.0572375143849E-07
(PID.TID 0000.0001) %MON trcstat_ptracer98_sd         =   2.8721781458172E-06
(PID.TID 0000.0001) %MON trcstat_ptracer98_del2       =   3.9360805508368E-08
(PID.TID 0000.0001) %MON trcstat_ptracer99_max        =   5.4113272484872E-05
(PID.TID 0000.0001) %MON trcstat_ptracer99_min        =  -9.8841188310996E-22
(PID.TID 0000.0001) %MON trcstat_ptracer99_mean       =   1.1594929458548E-07
(PID.TID 0000.0001) %MON trcstat_ptracer99_sd         =   1.7543215533292E-06
(PID.TID 0000.0001) %MON trcstat_ptracer99_del2       =   4.5435625580628E-08
(PID.TID 0000.0001) // =======================================================
(PID.TID 0000.0001) // End MONITOR ptracers field statistics
(PID.TID 0000.0001) // =======================================================
 Compute Stats, Diag. #   1605  SIqsw     vol(   0 ): 4.767E+11  Parms: SM      U1      
 Compute Stats, Diag. #     86  oceQsw    vol(   0 ): 4.767E+11  Parms: SM      U1      
 Compute Stats, Diag. #   1497  PAR       vol(   0 ): 2.820E+13  Parms: SM P    MR      
 Compute Stats, Diag. #    176  EXFswnet  vol(   0 ): 4.767E+11  Parms: SM      U1      
 Compute Stats, Diag. #    178  EXFswdn   vol(   0 ): 4.767E+11  Parms: SM      U1      
 Compute Stats, Diag. #     26  THETA     vol(   0 ): 2.820E+13  Parms: SMR     MR      
 Compute Stats, Diag. #     29  SALTanom  vol(   0 ): 2.820E+13  Parms: SMR     MR      
 Compute Stats, Diag. #   1498  PP        vol(   0 ): 2.820E+13  Parms: SM P    MR      
 Compute Stats, Diag. #   1223  TRAC79    vol(   0 ): 2.820E+13  Parms: SMR     MR      
 Compute Stats, Diag. #     23  ETAN      vol(   0 ): 4.767E+11  Parms: SM      M1      
 Compute Stats, Diag. #    235  TRAC03    vol(   0 ): 2.820E+13  Parms: SMR     MR      
 Compute Stats, Diag. #   1579  Diver1    vol(   0 ): 2.820E+13  Parms: SM P    MR      
 Compute Stats, Diag. #   1580  Diver2    vol(   0 ): 2.820E+13  Parms: SM P    MR      
 Compute Stats, Diag. #   1581  Diver3    vol(   0 ): 2.820E+13  Parms: SM P    MR      
 Compute Stats, Diag. #   1582  Diver4    vol(   0 ): 2.820E+13  Parms: SM P    MR      
 Compute Stats, Diag. #   1583  Shannon   vol(   0 ): 2.820E+13  Parms: SM P    MR      
 Compute Stats, Diag. #   1584  Simpson   vol(   0 ): 2.820E+13  Parms: SM P    MR      
(PID.TID 0000.0001) // =======================================================
(PID.TID 0000.0001) // Begin MONITOR EXF statistics
(PID.TID 0000.0001) // =======================================================
(PID.TID 0000.0001) %MON exf_tsnumber                 =                188390
(PID.TID 0000.0001) %MON exf_time_sec                 =   2.2606800000000E+08
(PID.TID 0000.0001) %MON exf_ustress_max              =   2.7524258382026E-01
(PID.TID 0000.0001) %MON exf_ustress_min              =  -3.3933641743668E-02
(PID.TID 0000.0001) %MON exf_ustress_mean             =   7.8047576146997E-02
(PID.TID 0000.0001) %MON exf_ustress_sd               =   7.6635964068093E-02
(PID.TID 0000.0001) %MON exf_ustress_del2             =   6.1768102771745E-05
(PID.TID 0000.0001) %MON exf_vstress_max              =   1.6499713202640E-01
(PID.TID 0000.0001) %MON exf_vstress_min              =  -1.9105533613174E-01
(PID.TID 0000.0001) %MON exf_vstress_mean             =  -2.2133792122938E-02
(PID.TID 0000.0001) %MON exf_vstress_sd               =   7.6584718269131E-02
(PID.TID 0000.0001) %MON exf_vstress_del2             =   5.7327120457600E-05
(PID.TID 0000.0001) %MON exf_hflux_max                =   6.5459921233104E+01
(PID.TID 0000.0001) %MON exf_hflux_min                =  -1.7148863743569E+02
(PID.TID 0000.0001) %MON exf_hflux_mean               =  -7.3199460434489E+01
(PID.TID 0000.0001) %MON exf_hflux_sd                 =   5.7782145818301E+01
(PID.TID 0000.0001) %MON exf_hflux_del2               =   3.6572695626222E-01
(PID.TID 0000.0001) %MON exf_sflux_max                =   1.0742477505537E-08
(PID.TID 0000.0001) %MON exf_sflux_min                =  -2.9299175080998E-07
(PID.TID 0000.0001) %MON exf_sflux_mean               =  -9.5913796144809E-08
(PID.TID 0000.0001) %MON exf_sflux_sd                 =   7.1988335303211E-08
(PID.TID 0000.0001) %MON exf_sflux_del2               =   1.1810226542150E-10
(PID.TID 0000.0001) %MON exf_uwind_max                =   1.2009393924896E+01
(PID.TID 0000.0001) %MON exf_uwind_min                =  -2.5384730801197E+00
(PID.TID 0000.0001) %MON exf_uwind_mean               =   5.7232282508397E+00
(PID.TID 0000.0001) %MON exf_uwind_sd                 =   3.6524318360213E+00
(PID.TID 0000.0001) %MON exf_uwind_del2               =   1.6160451114501E-03
(PID.TID 0000.0001) %MON exf_vwind_max                =   1.0543330602760E+01
(PID.TID 0000.0001) %MON exf_vwind_min                =  -8.6060189433922E+00
(PID.TID 0000.0001) %MON exf_vwind_mean               =  -1.4108636009875E+00
(PID.TID 0000.0001) %MON exf_vwind_sd                 =   5.4005925141342E+00
(PID.TID 0000.0001) %MON exf_vwind_del2               =   2.0610003113099E-03
(PID.TID 0000.0001) %MON exf_wspeed_max               =   1.3781145697098E+01
(PID.TID 0000.0001) %MON exf_wspeed_min               =   3.8855170793055E+00
(PID.TID 0000.0001) %MON exf_wspeed_mean              =   8.4293051493299E+00
(PID.TID 0000.0001) %MON exf_wspeed_sd                =   2.4898494395819E+00
(PID.TID 0000.0001) %MON exf_wspeed_del2              =   7.0472211325193E-02
(PID.TID 0000.0001) %MON exf_atemp_max                =   2.7983420881270E+02
(PID.TID 0000.0001) %MON exf_atemp_min                =   2.6687602536309E+02
(PID.TID 0000.0001) %MON exf_atemp_mean               =   2.7515143280099E+02
(PID.TID 0000.0001) %MON exf_atemp_sd                 =   2.5521993403252E+00
(PID.TID 0000.0001) %MON exf_atemp_del2               =   1.8332280161568E-02
(PID.TID 0000.0001) %MON exf_aqh_max                  =   6.0197607631983E-03
(PID.TID 0000.0001) %MON exf_aqh_min                  =   2.3891831539298E-03
(PID.TID 0000.0001) %MON exf_aqh_mean                 =   4.3140496816816E-03
(PID.TID 0000.0001) %MON exf_aqh_sd                   =   7.3243725226316E-04
(PID.TID 0000.0001) %MON exf_aqh_del2                 =   2.9408147718571E-05
(PID.TID 0000.0001) %MON exf_lwflux_max               =   8.1796412811791E+01
(PID.TID 0000.0001) %MON exf_lwflux_min               =   6.8259335070031E+00
(PID.TID 0000.0001) %MON exf_lwflux_mean              =   4.0144944030732E+01
(PID.TID 0000.0001) %MON exf_lwflux_sd                =   1.8954037216740E+01
(PID.TID 0000.0001) %MON exf_lwflux_del2              =   2.7741809966653E-01
(PID.TID 0000.0001) %MON exf_precip_max               =   2.9448932260704E-07
(PID.TID 0000.0001) %MON exf_precip_min               =   3.6262787242397E-09
(PID.TID 0000.0001) %MON exf_precip_mean              =   9.2465818552529E-08
(PID.TID 0000.0001) %MON exf_precip_sd                =   7.0937505150230E-08
(PID.TID 0000.0001) %MON exf_precip_del2              =   1.2224804784319E-09
(PID.TID 0000.0001) %MON exf_swflux_max               =  -8.7004312031487E+01
(PID.TID 0000.0001) %MON exf_swflux_min               =  -2.0118764713436E+02
(PID.TID 0000.0001) %MON exf_swflux_mean              =  -1.3386926147499E+02
(PID.TID 0000.0001) %MON exf_swflux_sd                =   2.9380343904839E+01
(PID.TID 0000.0001) %MON exf_swflux_del2              =   3.0908002437095E-02
(PID.TID 0000.0001) %MON exf_evap_max                 =   2.5704990662785E-08
(PID.TID 0000.0001) %MON exf_evap_min                 =  -1.2793919769420E-08
(PID.TID 0000.0001) %MON exf_evap_mean                =   5.2157322251338E-09
(PID.TID 0000.0001) %MON exf_evap_sd                  =   8.3683438310717E-09
(PID.TID 0000.0001) %MON exf_evap_del2                =   8.7009742679803E-11
(PID.TID 0000.0001) %MON exf_swdown_max               =   2.3669134956983E+02
(PID.TID 0000.0001) %MON exf_swdown_min               =   1.0235801415469E+02
(PID.TID 0000.0001) %MON exf_swdown_mean              =   1.5749324879410E+02
(PID.TID 0000.0001) %MON exf_swdown_sd                =   3.4565110476282E+01
(PID.TID 0000.0001) %MON exf_swdown_del2              =   1.0413092044396E+00
(PID.TID 0000.0001) %MON exf_lwdown_max               =   3.0472782725455E+02
(PID.TID 0000.0001) %MON exf_lwdown_min               =   2.4260940651744E+02
(PID.TID 0000.0001) %MON exf_lwdown_mean              =   2.7493097183589E+02
(PID.TID 0000.0001) %MON exf_lwdown_sd                =   1.4964719654061E+01
(PID.TID 0000.0001) %MON exf_lwdown_del2              =   2.0696203314227E+00
(PID.TID 0000.0001) %MON exf_runoff_max               =   7.4975011851692E-08
(PID.TID 0000.0001) %MON exf_runoff_min               =   0.0000000000000E+00
(PID.TID 0000.0001) %MON exf_runoff_mean              =   8.6637098174130E-09
(PID.TID 0000.0001) %MON exf_runoff_sd                =   1.9487938307725E-08
(PID.TID 0000.0001) %MON exf_runoff_del2              =   6.8076164467882E-11
(PID.TID 0000.0001) %MON exf_climsss_max              =   3.4374217242359E+01
(PID.TID 0000.0001) %MON exf_climsss_min              =   2.9703491636456E+00
(PID.TID 0000.0001) %MON exf_climsss_mean             =   1.2720573107763E+01
(PID.TID 0000.0001) %MON exf_climsss_sd               =   1.0010322971367E+01
(PID.TID 0000.0001) %MON exf_climsss_del2             =   3.2300275761581E-03
(PID.TID 0000.0001) // =======================================================
(PID.TID 0000.0001) // End MONITOR EXF statistics
(PID.TID 0000.0001) // =======================================================
 SEAICE_LSR: Residual Initial ipass,Uice,Vice=    1  2.22436849E-02  2.14635368E-02
 SEAICE_LSR: Residual FrDrift U_fd,V_fd=  3.26957678E+02  2.33065138E+02
 SEAICE_LSR (ipass=   1) iters,dU,Resid=    58  9.76679792E-05  3.37959562E-04
 SEAICE_LSR (ipass=   1) iters,dV,Resid=    52  9.53962438E-05  7.39251097E-04
 SEAICE_LSR: Residual Initial ipass,Uice,Vice=    2  1.99206480E-02  1.85111567E-02
 SEAICE_LSR: Residual FrDrift U_fd,V_fd=  3.26971838E+02  2.33080541E+02
 SEAICE_LSR (ipass=   2) iters,dU,Resid=    22  9.74297121E-05  4.16751734E-04
 SEAICE_LSR (ipass=   2) iters,dV,Resid=    16  7.75711607E-05  3.59915215E-03
 cg2d: Sum(rhs),rhsMax =  -6.10317759367613E+02  2.79701807242406E-01
(PID.TID 0000.0001)      cg2d_init_res =   1.72162148808494E-01
(PID.TID 0000.0001)      cg2d_iters(min,last) =      -1      19
(PID.TID 0000.0001)      cg2d_last_res =   9.47976281520857E-06
(PID.TID 0000.0001) // =======================================================
(PID.TID 0000.0001) // Begin MONITOR dynamic field statistics
(PID.TID 0000.0001) // =======================================================
(PID.TID 0000.0001) %MON time_tsnumber                =                188391
(PID.TID 0000.0001) %MON time_secondsf                =   2.2606920000000E+08
(PID.TID 0000.0001) %MON dynstat_eta_max              =   6.5772775793898E-01
(PID.TID 0000.0001) %MON dynstat_eta_min              =   4.4787767411503E-02
(PID.TID 0000.0001) %MON dynstat_eta_mean             =   3.7231498965768E-01
(PID.TID 0000.0001) %MON dynstat_eta_sd               =   1.5243787068784E-01
(PID.TID 0000.0001) %MON dynstat_eta_del2             =   3.3288263349333E-04
(PID.TID 0000.0001) %MON dynstat_uvel_max             =   3.9158013117433E-01
(PID.TID 0000.0001) %MON dynstat_uvel_min             =  -3.3853692339087E-01
(PID.TID 0000.0001) %MON dynstat_uvel_mean            =   5.6502483711893E-03
(PID.TID 0000.0001) %MON dynstat_uvel_sd              =   6.1855114310128E-02
(PID.TID 0000.0001) %MON dynstat_uvel_del2            =   9.6907336178037E-04
(PID.TID 0000.0001) %MON dynstat_vvel_max             =   2.6176253206902E-01
(PID.TID 0000.0001) %MON dynstat_vvel_min             =  -4.4789319024498E-01
(PID.TID 0000.0001) %MON dynstat_vvel_mean            =   2.4633174307340E-03
(PID.TID 0000.0001) %MON dynstat_vvel_sd              =   6.3823487856245E-02
(PID.TID 0000.0001) %MON dynstat_vvel_del2            =   1.1547161557184E-03
(PID.TID 0000.0001) %MON dynstat_wvel_max             =   4.9556610281464E-04
(PID.TID 0000.0001) %MON dynstat_wvel_min             =  -5.0459568042966E-04
(PID.TID 0000.0001) %MON dynstat_wvel_mean            =  -2.6276485284616E-06
(PID.TID 0000.0001) %MON dynstat_wvel_sd              =   7.4986742586303E-05
(PID.TID 0000.0001) %MON dynstat_wvel_del2            =   2.0270034177836E-06
(PID.TID 0000.0001) %MON dynstat_theta_max            =   7.9703233110143E+00
(PID.TID 0000.0001) %MON dynstat_theta_min            =  -1.6125241397944E+00
(PID.TID 0000.0001) %MON dynstat_theta_mean           =   3.7807237805878E+00
(PID.TID 0000.0001) %MON dynstat_theta_sd             =   2.2010245673171E+00
(PID.TID 0000.0001) %MON dynstat_theta_del2           =   6.0320427503102E-03
(PID.TID 0000.0001) %MON dynstat_salt_max             =   3.4927946546489E+01
(PID.TID 0000.0001) %MON dynstat_salt_min             =   5.6522385170342E+00
(PID.TID 0000.0001) %MON dynstat_salt_mean            =   1.5353183177649E+01
(PID.TID 0000.0001) %MON dynstat_salt_sd              =   1.1951688567049E+01
(PID.TID 0000.0001) %MON dynstat_salt_del2            =   3.5915782980861E-03
(PID.TID 0000.0001) %MON forcing_qnet_max             =   3.4958506534396E+02
(PID.TID 0000.0001) %MON forcing_qnet_min             =  -1.7148863743569E+02
(PID.TID 0000.0001) %MON forcing_qnet_mean            =  -5.7372597618984E+01
(PID.TID 0000.0001) %MON forcing_qnet_sd              =   6.0115025988897E+01
(PID.TID 0000.0001) %MON forcing_qnet_del2            =   1.3284780985506E+00
(PID.TID 0000.0001) %MON forcing_qsw_max              =   0.0000000000000E+00
(PID.TID 0000.0001) %MON forcing_qsw_min              =  -2.0118764713436E+02
(PID.TID 0000.0001) %MON forcing_qsw_mean             =  -1.0959605221894E+02
(PID.TID 0000.0001) %MON forcing_qsw_sd               =   6.1534356196505E+01
(PID.TID 0000.0001) %MON forcing_qsw_del2             =   4.8022836609847E-01
(PID.TID 0000.0001) %MON forcing_empmr_max            =   4.5144058406028E-05
(PID.TID 0000.0001) %MON forcing_empmr_min            =  -1.3535416899359E-03
(PID.TID 0000.0001) %MON forcing_empmr_mean           =  -9.9724961061143E-05
(PID.TID 0000.0001) %MON forcing_empmr_sd             =   1.1030608891910E-04
(PID.TID 0000.0001) %MON forcing_empmr_del2           =   4.1783596381574E-06
(PID.TID 0000.0001) %MON forcing_fu_max               =   2.7454544795799E-01
(PID.TID 0000.0001) %MON forcing_fu_min               =  -5.8174310248572E-02
(PID.TID 0000.0001) %MON forcing_fu_mean              =   7.8803725966232E-02
(PID.TID 0000.0001) %MON forcing_fu_sd                =   7.9041118367025E-02
(PID.TID 0000.0001) %MON forcing_fu_del2              =   2.3972876959552E-04
(PID.TID 0000.0001) %MON forcing_fv_max               =   1.4891954273726E-01
(PID.TID 0000.0001) %MON forcing_fv_min               =  -1.9091618531740E-01
(PID.TID 0000.0001) %MON forcing_fv_mean              =  -3.5885309618077E-02
(PID.TID 0000.0001) %MON forcing_fv_sd                =   6.0882904575068E-02
(PID.TID 0000.0001) %MON forcing_fv_del2              =   2.7871589718277E-04
(PID.TID 0000.0001) %MON advcfl_uvel_max              =   2.2942413195140E-02
(PID.TID 0000.0001) %MON advcfl_vvel_max              =   3.2900323423606E-02
(PID.TID 0000.0001) %MON advcfl_wvel_max              =   5.9467932337757E-02
(PID.TID 0000.0001) %MON advcfl_W_hf_max              =   5.9467932337757E-02
(PID.TID 0000.0001) %MON pe_b_mean                    =   1.3694822813045E-02
(PID.TID 0000.0001) %MON ke_max                       =   1.0747535899587E-01
(PID.TID 0000.0001) %MON ke_mean                      =   3.2062057939395E-03
(PID.TID 0000.0001) %MON ke_vol                       =   2.7634533915294E+13
(PID.TID 0000.0001) %MON vort_r_min                   =  -3.6217844675411E-05
(PID.TID 0000.0001) %MON vort_r_max                   =   3.3204209003720E-05
(PID.TID 0000.0001) %MON vort_a_mean                  =   1.2397552865078E-04
(PID.TID 0000.0001) %MON vort_a_sd                    =   6.2760076531831E-06
(PID.TID 0000.0001) %MON vort_p_mean                  =   1.7325640976307E-04
(PID.TID 0000.0001) %MON vort_p_sd                    =   1.0959792058195E-04
(PID.TID 0000.0001) %MON surfExpan_theta_mean         =  -2.7920576441558E-07
(PID.TID 0000.0001) %MON surfExpan_salt_mean          =   1.5838565184402E-06
(PID.TID 0000.0001) // =======================================================
(PID.TID 0000.0001) // End MONITOR dynamic field statistics
(PID.TID 0000.0001) // =======================================================
(PID.TID 0000.0001) // =======================================================
(PID.TID 0000.0001) // Begin OBCS MONITOR field statistics
(PID.TID 0000.0001) // =======================================================
(PID.TID 0000.0001) %MON obc_W_uVel_max               =   7.0311157348377E-02
(PID.TID 0000.0001) %MON obc_W_uVel_min               =  -1.2519147138295E-02
(PID.TID 0000.0001) %MON obc_W_uVel_mean              =   2.2507372203566E-02
(PID.TID 0000.0001) %MON obc_W_uVel_sd                =   2.5872836711626E-02
(PID.TID 0000.0001) %MON obc_W_uVel_Int               =   4.7336439635137E+04
(PID.TID 0000.0001) %MON obc_N_vVel_max               =   1.8559418203401E-01
(PID.TID 0000.0001) %MON obc_N_vVel_min               =  -2.5368529307793E-01
(PID.TID 0000.0001) %MON obc_N_vVel_mean              =   1.5203613240551E-03
(PID.TID 0000.0001) %MON obc_N_vVel_sd                =   8.5388517745216E-02
(PID.TID 0000.0001) %MON obc_N_vVel_Int               =   4.7697546029132E+04
(PID.TID 0000.0001) // =======================================================
(PID.TID 0000.0001) // End OBCS MONITOR field statistics
(PID.TID 0000.0001) // =======================================================
(PID.TID 0000.0001) // =======================================================
(PID.TID 0000.0001) // Begin MONITOR SEAICE statistics
(PID.TID 0000.0001) // =======================================================
(PID.TID 0000.0001) %MON seaice_tsnumber              =                188391
(PID.TID 0000.0001) %MON seaice_time_sec              =   2.2606920000000E+08
(PID.TID 0000.0001) %MON seaice_uice_max              =   5.6000450832391E-01
(PID.TID 0000.0001) %MON seaice_uice_min              =  -2.6386411749109E-01
(PID.TID 0000.0001) %MON seaice_uice_mean             =   1.1892943788650E-01
(PID.TID 0000.0001) %MON seaice_uice_sd               =   1.0947473201252E-01
(PID.TID 0000.0001) %MON seaice_uice_del2             =   2.7667564545474E-03
(PID.TID 0000.0001) %MON seaice_vice_max              =   3.7995199200040E-01
(PID.TID 0000.0001) %MON seaice_vice_min              =  -5.5023392833397E-01
(PID.TID 0000.0001) %MON seaice_vice_mean             =  -7.2770610525144E-02
(PID.TID 0000.0001) %MON seaice_vice_sd               =   1.0889331637772E-01
(PID.TID 0000.0001) %MON seaice_vice_del2             =   2.9263371370478E-03
(PID.TID 0000.0001) %MON seaice_area_max              =   1.0000000000000E+00
(PID.TID 0000.0001) %MON seaice_area_min              =   0.0000000000000E+00
(PID.TID 0000.0001) %MON seaice_area_mean             =   2.2602438538888E-01
(PID.TID 0000.0001) %MON seaice_area_sd               =   3.8527311168909E-01
(PID.TID 0000.0001) %MON seaice_area_del2             =   4.4554310556034E-03
(PID.TID 0000.0001) %MON seaice_heff_max              =   1.0116288930508E+00
(PID.TID 0000.0001) %MON seaice_heff_min              =   0.0000000000000E+00
(PID.TID 0000.0001) %MON seaice_heff_mean             =   1.2505412499004E-01
(PID.TID 0000.0001) %MON seaice_heff_sd               =   2.4320860894643E-01
(PID.TID 0000.0001) %MON seaice_heff_del2             =   2.2280248365401E-03
(PID.TID 0000.0001) %MON seaice_hsnow_max             =   2.7625339376112E-01
(PID.TID 0000.0001) %MON seaice_hsnow_min             =   0.0000000000000E+00
(PID.TID 0000.0001) %MON seaice_hsnow_mean            =   3.0794324084467E-02
(PID.TID 0000.0001) %MON seaice_hsnow_sd              =   6.4363960870202E-02
(PID.TID 0000.0001) %MON seaice_hsnow_del2            =   3.7212359403154E-04
(PID.TID 0000.0001) %MON seaice_sitracer01_max        =   3.6000000000000E+03
(PID.TID 0000.0001) %MON seaice_sitracer01_min        =   0.0000000000000E+00
(PID.TID 0000.0001) %MON seaice_sitracer01_mean       =   1.0488028978642E+03
(PID.TID 0000.0001) %MON seaice_sitracer01_sd         =   1.6357521625258E+03
(PID.TID 0000.0001) %MON seaice_sitracer01_del2       =   2.6111621978688E+01
(PID.TID 0000.0001) %MON seaice_sitracer02_max        =   1.0000000000000E+00
(PID.TID 0000.0001) %MON seaice_sitracer02_min        =   0.0000000000000E+00
(PID.TID 0000.0001) %MON seaice_sitracer02_mean       =   3.0038537256134E-01
(PID.TID 0000.0001) %MON seaice_sitracer02_sd         =   4.5842556703627E-01
(PID.TID 0000.0001) %MON seaice_sitracer02_del2       =   6.9322861627375E-03
(PID.TID 0000.0001) // =======================================================
(PID.TID 0000.0001) // End MONITOR SEAICE statistics
(PID.TID 0000.0001) // =======================================================
(PID.TID 0000.0001) // =======================================================
(PID.TID 0000.0001) // Begin MONITOR ptracer field statistics
(PID.TID 0000.0001) // =======================================================
(PID.TID 0000.0001) %MON trcstat_ptracer01_max        =   4.3205767768173E+00
(PID.TID 0000.0001) %MON trcstat_ptracer01_min        =   3.8003681907991E-02
(PID.TID 0000.0001) %MON trcstat_ptracer01_mean       =   5.9107650945005E-01
(PID.TID 0000.0001) %MON trcstat_ptracer01_sd         =   5.1751678088055E-01
(PID.TID 0000.0001) %MON trcstat_ptracer01_del2       =   8.6425082662666E-04
(PID.TID 0000.0001) %MON trcstat_ptracer02_max        =   4.4160101177951E+01
(PID.TID 0000.0001) %MON trcstat_ptracer02_min        =   1.4930485372809E-02
(PID.TID 0000.0001) %MON trcstat_ptracer02_mean       =   4.5818117680635E+00
(PID.TID 0000.0001) %MON trcstat_ptracer02_sd         =   6.6980813773320E+00
(PID.TID 0000.0001) %MON trcstat_ptracer02_del2       =   1.2514874066220E-02
(PID.TID 0000.0001) %MON trcstat_ptracer03_max        =   1.3876603634317E-03
(PID.TID 0000.0001) %MON trcstat_ptracer03_min        =   5.8921514217265E-04
(PID.TID 0000.0001) %MON trcstat_ptracer03_mean       =   1.0854528010936E-03
(PID.TID 0000.0001) %MON trcstat_ptracer03_sd         =   1.4540407186688E-04
(PID.TID 0000.0001) %MON trcstat_ptracer03_del2       =   4.5487722792699E-07
(PID.TID 0000.0001) %MON trcstat_ptracer04_max        =   1.5669459284229E+02
(PID.TID 0000.0001) %MON trcstat_ptracer04_min        =   6.3221274984224E-02
(PID.TID 0000.0001) %MON trcstat_ptracer04_mean       =   1.4711860334702E+01
(PID.TID 0000.0001) %MON trcstat_ptracer04_sd         =   1.7084190270377E+01
(PID.TID 0000.0001) %MON trcstat_ptracer04_del2       =   2.7963633204585E-02
(PID.TID 0000.0001) %MON trcstat_ptracer05_max        =   2.8335202209526E-01
(PID.TID 0000.0001) %MON trcstat_ptracer05_min        =   8.3375064567289E-08
(PID.TID 0000.0001) %MON trcstat_ptracer05_mean       =   5.8405460721807E-02
(PID.TID 0000.0001) %MON trcstat_ptracer05_sd         =   5.6916935813197E-02
(PID.TID 0000.0001) %MON trcstat_ptracer05_del2       =   1.4698183230580E-04
(PID.TID 0000.0001) %MON trcstat_ptracer06_max        =   4.5336323535242E+00
(PID.TID 0000.0001) %MON trcstat_ptracer06_min        =   1.3340010330766E-06
(PID.TID 0000.0001) %MON trcstat_ptracer06_mean       =   9.3448737154892E-01
(PID.TID 0000.0001) %MON trcstat_ptracer06_sd         =   9.1067097301115E-01
(PID.TID 0000.0001) %MON trcstat_ptracer06_del2       =   2.3517093168928E-03
(PID.TID 0000.0001) %MON trcstat_ptracer07_max        =   2.8335202209526E-04
(PID.TID 0000.0001) %MON trcstat_ptracer07_min        =   8.3375064567292E-11
(PID.TID 0000.0001) %MON trcstat_ptracer07_mean       =   5.8405460710098E-05
(PID.TID 0000.0001) %MON trcstat_ptracer07_sd         =   5.6916935867899E-05
(PID.TID 0000.0001) %MON trcstat_ptracer07_del2       =   1.4698183271601E-07
(PID.TID 0000.0001) %MON trcstat_ptracer08_max        =   6.9773413929362E-03
(PID.TID 0000.0001) %MON trcstat_ptracer08_min        =   6.8786429830624E-33
(PID.TID 0000.0001) %MON trcstat_ptracer08_mean       =   4.7076943185160E-04
(PID.TID 0000.0001) %MON trcstat_ptracer08_sd         =   1.1061345788710E-03
(PID.TID 0000.0001) %MON trcstat_ptracer08_del2       =   3.6005791004764E-06
(PID.TID 0000.0001) %MON trcstat_ptracer09_max        =   1.1163746228698E-01
(PID.TID 0000.0001) %MON trcstat_ptracer09_min        =   1.1005828772900E-31
(PID.TID 0000.0001) %MON trcstat_ptracer09_mean       =   7.5323109096255E-03
(PID.TID 0000.0001) %MON trcstat_ptracer09_sd         =   1.7698153261936E-02
(PID.TID 0000.0001) %MON trcstat_ptracer09_del2       =   5.7609265607622E-05
(PID.TID 0000.0001) %MON trcstat_ptracer10_max        =   6.9773413944611E-06
(PID.TID 0000.0001) %MON trcstat_ptracer10_min        =   6.8786429830909E-36
(PID.TID 0000.0001) %MON trcstat_ptracer10_mean       =   4.7076943261675E-07
(PID.TID 0000.0001) %MON trcstat_ptracer10_sd         =   1.1061345803889E-06
(PID.TID 0000.0001) %MON trcstat_ptracer10_del2       =   3.6005791057946E-09
(PID.TID 0000.0001) %MON trcstat_ptracer11_max        =   8.8712037807713E-03
(PID.TID 0000.0001) %MON trcstat_ptracer11_min        =   1.9377987878340E-32
(PID.TID 0000.0001) %MON trcstat_ptracer11_mean       =   3.4608036781833E-04
(PID.TID 0000.0001) %MON trcstat_ptracer11_sd         =   1.3389179526549E-03
(PID.TID 0000.0001) %MON trcstat_ptracer11_del2       =   4.6098796824856E-06
(PID.TID 0000.0001) %MON trcstat_ptracer12_max        =   8.4285337763719E-02
(PID.TID 0000.0001) %MON trcstat_ptracer12_min        =   9.0134892287106E-23
(PID.TID 0000.0001) %MON trcstat_ptracer12_mean       =   1.7004802973304E-03
(PID.TID 0000.0001) %MON trcstat_ptracer12_sd         =   7.4905864325008E-03
(PID.TID 0000.0001) %MON trcstat_ptracer12_del2       =   3.2202074030505E-05
(PID.TID 0000.0001) %MON trcstat_ptracer13_max        =   1.3485654042195E+00
(PID.TID 0000.0001) %MON trcstat_ptracer13_min        =   1.4421582765937E-21
(PID.TID 0000.0001) %MON trcstat_ptracer13_mean       =   2.7207684757286E-02
(PID.TID 0000.0001) %MON trcstat_ptracer13_sd         =   1.1984938292001E-01
(PID.TID 0000.0001) %MON trcstat_ptracer13_del2       =   5.1523318448809E-04
(PID.TID 0000.0001) %MON trcstat_ptracer14_max        =   8.4285337815889E-05
(PID.TID 0000.0001) %MON trcstat_ptracer14_min        =   9.0134892287091E-26
(PID.TID 0000.0001) %MON trcstat_ptracer14_mean       =   1.7004802986321E-06
(PID.TID 0000.0001) %MON trcstat_ptracer14_sd         =   7.4905864360256E-06
(PID.TID 0000.0001) %MON trcstat_ptracer14_del2       =   3.2202074053472E-08
(PID.TID 0000.0001) %MON trcstat_ptracer15_max        =   9.4889865368903E-01
(PID.TID 0000.0001) %MON trcstat_ptracer15_min        =   9.4548672593413E-22
(PID.TID 0000.0001) %MON trcstat_ptracer15_mean       =   1.8539446612147E-02
(PID.TID 0000.0001) %MON trcstat_ptracer15_sd         =   9.2557712066950E-02
(PID.TID 0000.0001) %MON trcstat_ptracer15_del2       =   4.8135745312468E-04
(PID.TID 0000.0001) %MON trcstat_ptracer16_max        =   9.9799445036473E-01
(PID.TID 0000.0001) %MON trcstat_ptracer16_min        =   3.3283006960434E-09
(PID.TID 0000.0001) %MON trcstat_ptracer16_mean       =   2.0450771233697E-02
(PID.TID 0000.0001) %MON trcstat_ptracer16_sd         =   4.9057269947376E-02
(PID.TID 0000.0001) %MON trcstat_ptracer16_del2       =   2.9710113039792E-04
(PID.TID 0000.0001) %MON trcstat_ptracer17_max        =   1.5967911205836E+01
(PID.TID 0000.0001) %MON trcstat_ptracer17_min        =   5.3252811136694E-08
(PID.TID 0000.0001) %MON trcstat_ptracer17_mean       =   3.2721233973916E-01
(PID.TID 0000.0001) %MON trcstat_ptracer17_sd         =   7.8491631915802E-01
(PID.TID 0000.0001) %MON trcstat_ptracer17_del2       =   4.7536180863667E-03
(PID.TID 0000.0001) %MON trcstat_ptracer18_max        =   9.9799445036473E-04
(PID.TID 0000.0001) %MON trcstat_ptracer18_min        =   3.3283006960434E-12
(PID.TID 0000.0001) %MON trcstat_ptracer18_mean       =   2.0450771238305E-05
(PID.TID 0000.0001) %MON trcstat_ptracer18_sd         =   4.9057269944252E-05
(PID.TID 0000.0001) %MON trcstat_ptracer18_del2       =   2.9710113062236E-07
(PID.TID 0000.0001) %MON trcstat_ptracer19_max        =   3.0515958039627E+02
(PID.TID 0000.0001) %MON trcstat_ptracer19_min        =   9.0177182907129E-08
(PID.TID 0000.0001) %MON trcstat_ptracer19_mean       =   2.2923919146459E+00
(PID.TID 0000.0001) %MON trcstat_ptracer19_sd         =   1.2513294263929E+01
(PID.TID 0000.0001) %MON trcstat_ptracer19_del2       =   5.3791587165854E-02
(PID.TID 0000.0001) %MON trcstat_ptracer20_max        =   2.4920126566191E-01
(PID.TID 0000.0001) %MON trcstat_ptracer20_min        =   2.2787575977264E-07
(PID.TID 0000.0001) %MON trcstat_ptracer20_mean       =   1.3734151516658E-02
(PID.TID 0000.0001) %MON trcstat_ptracer20_sd         =   1.8062532349964E-02
(PID.TID 0000.0001) %MON trcstat_ptracer20_del2       =   8.3883935320999E-04
(PID.TID 0000.0001) %MON trcstat_ptracer21_max        =   2.3332583407393E+00
(PID.TID 0000.0001) %MON trcstat_ptracer21_min        =   3.0151262924999E-05
(PID.TID 0000.0001) %MON trcstat_ptracer21_mean       =   1.5996165542374E-01
(PID.TID 0000.0001) %MON trcstat_ptracer21_sd         =   1.8961454346869E-01
(PID.TID 0000.0001) %MON trcstat_ptracer21_del2       =   7.1005709329007E-04
(PID.TID 0000.0001) %MON trcstat_ptracer22_max        =   5.6052070204139E-05
(PID.TID 0000.0001) %MON trcstat_ptracer22_min        =  -2.1068568873057E-19
(PID.TID 0000.0001) %MON trcstat_ptracer22_mean       =   1.2517562965904E-07
(PID.TID 0000.0001) %MON trcstat_ptracer22_sd         =   1.8060168085661E-06
(PID.TID 0000.0001) %MON trcstat_ptracer22_del2       =   4.5309046085119E-08
(PID.TID 0000.0001) %MON trcstat_ptracer23_max        =   5.2155940272421E-04
(PID.TID 0000.0001) %MON trcstat_ptracer23_min        =  -2.2601834168076E-24
(PID.TID 0000.0001) %MON trcstat_ptracer23_mean       =   7.3083970466288E-06
(PID.TID 0000.0001) %MON trcstat_ptracer23_sd         =   3.9758813207807E-05
(PID.TID 0000.0001) %MON trcstat_ptracer23_del2       =   1.8908285737182E-07
(PID.TID 0000.0001) %MON trcstat_ptracer24_max        =   5.6052076276980E-05
(PID.TID 0000.0001) %MON trcstat_ptracer24_min        =   5.7060590092665E-51
(PID.TID 0000.0001) %MON trcstat_ptracer24_mean       =   1.2530643464751E-07
(PID.TID 0000.0001) %MON trcstat_ptracer24_sd         =   1.8060077558831E-06
(PID.TID 0000.0001) %MON trcstat_ptracer24_del2       =   4.5309056132839E-08
(PID.TID 0000.0001) %MON trcstat_ptracer25_max        =   1.4223407661465E-04
(PID.TID 0000.0001) %MON trcstat_ptracer25_min        =   8.0707222926398E-34
(PID.TID 0000.0001) %MON trcstat_ptracer25_mean       =   2.6906407825728E-06
(PID.TID 0000.0001) %MON trcstat_ptracer25_sd         =   1.0788997155971E-05
(PID.TID 0000.0001) %MON trcstat_ptracer25_del2       =   1.0462642445292E-07
(PID.TID 0000.0001) %MON trcstat_ptracer26_max        =   5.3162845112812E-05
(PID.TID 0000.0001) %MON trcstat_ptracer26_min        =  -2.6866680479104E-17
(PID.TID 0000.0001) %MON trcstat_ptracer26_mean       =   1.0754221585733E-07
(PID.TID 0000.0001) %MON trcstat_ptracer26_sd         =   1.6811222265276E-06
(PID.TID 0000.0001) %MON trcstat_ptracer26_del2       =   4.6418431459027E-08
(PID.TID 0000.0001) %MON trcstat_ptracer27_max        =   9.6144160641402E-03
(PID.TID 0000.0001) %MON trcstat_ptracer27_min        =   1.2866675403554E-19
(PID.TID 0000.0001) %MON trcstat_ptracer27_mean       =   2.4546926916986E-04
(PID.TID 0000.0001) %MON trcstat_ptracer27_sd         =   6.7398298641694E-04
(PID.TID 0000.0001) %MON trcstat_ptracer27_del2       =   5.2975000341169E-06
(PID.TID 0000.0001) %MON trcstat_ptracer28_max        =   9.2133200132393E-02
(PID.TID 0000.0001) %MON trcstat_ptracer28_min        =   6.7039062981872E-24
(PID.TID 0000.0001) %MON trcstat_ptracer28_mean       =   1.6150135442341E-03
(PID.TID 0000.0001) %MON trcstat_ptracer28_sd         =   5.8664830702037E-03
(PID.TID 0000.0001) %MON trcstat_ptracer28_del2       =   4.6179066108736E-05
(PID.TID 0000.0001) %MON trcstat_ptracer29_max        =   1.0582566171803E-03
(PID.TID 0000.0001) %MON trcstat_ptracer29_min        =   9.9999999999874E-51
(PID.TID 0000.0001) %MON trcstat_ptracer29_mean       =   3.0116453849274E-06
(PID.TID 0000.0001) %MON trcstat_ptracer29_sd         =   2.4296737628337E-05
(PID.TID 0000.0001) %MON trcstat_ptracer29_del2       =   1.7044411148784E-07
(PID.TID 0000.0001) %MON trcstat_ptracer30_max        =   1.2989446196417E-02
(PID.TID 0000.0001) %MON trcstat_ptracer30_min        =   1.2287026227251E-29
(PID.TID 0000.0001) %MON trcstat_ptracer30_mean       =   1.3895090720755E-04
(PID.TID 0000.0001) %MON trcstat_ptracer30_sd         =   7.2045075585586E-04
(PID.TID 0000.0001) %MON trcstat_ptracer30_del2       =   7.2681455561290E-06
(PID.TID 0000.0001) %MON trcstat_ptracer31_max        =   5.5378283458594E-05
(PID.TID 0000.0001) %MON trcstat_ptracer31_min        =   1.2563197913909E-14
(PID.TID 0000.0001) %MON trcstat_ptracer31_mean       =   1.1947670860144E-07
(PID.TID 0000.0001) %MON trcstat_ptracer31_sd         =   1.7893151159670E-06
(PID.TID 0000.0001) %MON trcstat_ptracer31_del2       =   4.5634788492094E-08
(PID.TID 0000.0001) %MON trcstat_ptracer32_max        =   5.4176226309349E-05
(PID.TID 0000.0001) %MON trcstat_ptracer32_min        =  -5.4490588694353E-19
(PID.TID 0000.0001) %MON trcstat_ptracer32_mean       =   1.1617645658418E-07
(PID.TID 0000.0001) %MON trcstat_ptracer32_sd         =   1.7573286931935E-06
(PID.TID 0000.0001) %MON trcstat_ptracer32_del2       =   4.5463071031124E-08
(PID.TID 0000.0001) %MON trcstat_ptracer33_max        =   5.2565898013965E-05
(PID.TID 0000.0001) %MON trcstat_ptracer33_min        =  -2.0619571117073E-21
(PID.TID 0000.0001) %MON trcstat_ptracer33_mean       =   1.0664209134229E-07
(PID.TID 0000.0001) %MON trcstat_ptracer33_sd         =   1.6648684893695E-06
(PID.TID 0000.0001) %MON trcstat_ptracer33_del2       =   4.6278587386249E-08
(PID.TID 0000.0001) %MON trcstat_ptracer34_max        =   5.6014776292937E-05
(PID.TID 0000.0001) %MON trcstat_ptracer34_min        =   5.6885217279640E-51
(PID.TID 0000.0001) %MON trcstat_ptracer34_mean       =   1.2517669756616E-07
(PID.TID 0000.0001) %MON trcstat_ptracer34_sd         =   1.8067310177286E-06
(PID.TID 0000.0001) %MON trcstat_ptracer34_del2       =   4.5276087056804E-08
(PID.TID 0000.0001) %MON trcstat_ptracer35_max        =   5.3249803786588E-05
(PID.TID 0000.0001) %MON trcstat_ptracer35_min        =  -2.5981956539388E-17
(PID.TID 0000.0001) %MON trcstat_ptracer35_mean       =   1.0756618666382E-07
(PID.TID 0000.0001) %MON trcstat_ptracer35_sd         =   1.6800549024051E-06
(PID.TID 0000.0001) %MON trcstat_ptracer35_del2       =   4.6384860561344E-08
(PID.TID 0000.0001) %MON trcstat_ptracer36_max        =   5.6014776269636E-05
(PID.TID 0000.0001) %MON trcstat_ptracer36_min        =  -5.8860784472533E-19
(PID.TID 0000.0001) %MON trcstat_ptracer36_mean       =   1.2504682394942E-07
(PID.TID 0000.0001) %MON trcstat_ptracer36_sd         =   1.8046026052657E-06
(PID.TID 0000.0001) %MON trcstat_ptracer36_del2       =   4.5313437623870E-08
(PID.TID 0000.0001) %MON trcstat_ptracer37_max        =   5.7351853991146E-05
(PID.TID 0000.0001) %MON trcstat_ptracer37_min        =  -3.8814514386305E-36
(PID.TID 0000.0001) %MON trcstat_ptracer37_mean       =   1.3015094292358E-07
(PID.TID 0000.0001) %MON trcstat_ptracer37_sd         =   1.8396777308612E-06
(PID.TID 0000.0001) %MON trcstat_ptracer37_del2       =   4.5480111161481E-08
(PID.TID 0000.0001) %MON trcstat_ptracer38_max        =   7.1024791841491E-05
(PID.TID 0000.0001) %MON trcstat_ptracer38_min        =   9.8830332433142E-51
(PID.TID 0000.0001) %MON trcstat_ptracer38_mean       =   1.7615877628367E-07
(PID.TID 0000.0001) %MON trcstat_ptracer38_sd         =   2.2674976236548E-06
(PID.TID 0000.0001) %MON trcstat_ptracer38_del2       =   4.3401126311099E-08
(PID.TID 0000.0001) %MON trcstat_ptracer39_max        =   2.8211069740523E-03
(PID.TID 0000.0001) %MON trcstat_ptracer39_min        =   7.4217719388072E-33
(PID.TID 0000.0001) %MON trcstat_ptracer39_mean       =   1.8653721795769E-05
(PID.TID 0000.0001) %MON trcstat_ptracer39_sd         =   1.3509456626045E-04
(PID.TID 0000.0001) %MON trcstat_ptracer39_del2       =   1.0095557789238E-06
(PID.TID 0000.0001) %MON trcstat_ptracer40_max        =   5.6014776269664E-05
(PID.TID 0000.0001) %MON trcstat_ptracer40_min        =  -7.0886205306079E-19
(PID.TID 0000.0001) %MON trcstat_ptracer40_mean       =   1.2504682226910E-07
(PID.TID 0000.0001) %MON trcstat_ptracer40_sd         =   1.8046026053904E-06
(PID.TID 0000.0001) %MON trcstat_ptracer40_del2       =   4.5313437623679E-08
(PID.TID 0000.0001) %MON trcstat_ptracer41_max        =   5.6097786513518E-05
(PID.TID 0000.0001) %MON trcstat_ptracer41_min        =  -4.8650340804781E-18
(PID.TID 0000.0001) %MON trcstat_ptracer41_mean       =   1.2533228050638E-07
(PID.TID 0000.0001) %MON trcstat_ptracer41_sd         =   1.8075647327687E-06
(PID.TID 0000.0001) %MON trcstat_ptracer41_del2       =   4.5277729312739E-08
(PID.TID 0000.0001) %MON trcstat_ptracer42_max        =   5.3245912510087E-05
(PID.TID 0000.0001) %MON trcstat_ptracer42_min        =   7.4284925426159E-17
(PID.TID 0000.0001) %MON trcstat_ptracer42_mean       =   1.0818385746583E-07
(PID.TID 0000.0001) %MON trcstat_ptracer42_sd         =   1.6758399557984E-06
(PID.TID 0000.0001) %MON trcstat_ptracer42_del2       =   4.6491081740248E-08
(PID.TID 0000.0001) %MON trcstat_ptracer43_max        =   1.0371094767085E-03
(PID.TID 0000.0001) %MON trcstat_ptracer43_min        =   5.4166926391680E-14
(PID.TID 0000.0001) %MON trcstat_ptracer43_mean       =   2.2959631220698E-05
(PID.TID 0000.0001) %MON trcstat_ptracer43_sd         =   8.2387682124329E-05
(PID.TID 0000.0001) %MON trcstat_ptracer43_del2       =   6.4363469902631E-07
(PID.TID 0000.0001) %MON trcstat_ptracer44_max        =   5.6014776923753E-05
(PID.TID 0000.0001) %MON trcstat_ptracer44_min        =  -1.3558520158724E-31
(PID.TID 0000.0001) %MON trcstat_ptracer44_mean       =   1.2506588685486E-07
(PID.TID 0000.0001) %MON trcstat_ptracer44_sd         =   1.8046012912000E-06
(PID.TID 0000.0001) %MON trcstat_ptracer44_del2       =   4.5313438386412E-08
(PID.TID 0000.0001) %MON trcstat_ptracer45_max        =   1.0490373482034E-04
(PID.TID 0000.0001) %MON trcstat_ptracer45_min        =   1.4103338070982E-50
(PID.TID 0000.0001) %MON trcstat_ptracer45_mean       =   3.7055331569870E-07
(PID.TID 0000.0001) %MON trcstat_ptracer45_sd         =   3.9331505885532E-06
(PID.TID 0000.0001) %MON trcstat_ptracer45_del2       =   4.5946434543822E-08
(PID.TID 0000.0001) %MON trcstat_ptracer46_max        =   5.4774778572690E-05
(PID.TID 0000.0001) %MON trcstat_ptracer46_min        =  -6.1878525942083E-21
(PID.TID 0000.0001) %MON trcstat_ptracer46_mean       =   1.1720618220628E-07
(PID.TID 0000.0001) %MON trcstat_ptracer46_sd         =   1.7746402967318E-06
(PID.TID 0000.0001) %MON trcstat_ptracer46_del2       =   4.5559581583716E-08
(PID.TID 0000.0001) %MON trcstat_ptracer47_max        =   5.6052070192446E-05
(PID.TID 0000.0001) %MON trcstat_ptracer47_min        =  -5.1790930637746E-19
(PID.TID 0000.0001) %MON trcstat_ptracer47_mean       =   1.2517517334521E-07
(PID.TID 0000.0001) %MON trcstat_ptracer47_sd         =   1.8060168408131E-06
(PID.TID 0000.0001) %MON trcstat_ptracer47_del2       =   4.5309046033994E-08
(PID.TID 0000.0001) %MON trcstat_ptracer48_max        =   5.6052070196195E-05
(PID.TID 0000.0001) %MON trcstat_ptracer48_min        =  -7.7571654522345E-35
(PID.TID 0000.0001) %MON trcstat_ptracer48_mean       =   1.2517561910552E-07
(PID.TID 0000.0001) %MON trcstat_ptracer48_sd         =   1.8060168093860E-06
(PID.TID 0000.0001) %MON trcstat_ptracer48_del2       =   4.5309046058167E-08
(PID.TID 0000.0001) %MON trcstat_ptracer49_max        =   5.6052656930236E-05
(PID.TID 0000.0001) %MON trcstat_ptracer49_min        =   7.8260563582061E-51
(PID.TID 0000.0001) %MON trcstat_ptracer49_mean       =   1.3862173441712E-07
(PID.TID 0000.0001) %MON trcstat_ptracer49_sd         =   1.8058050057103E-06
(PID.TID 0000.0001) %MON trcstat_ptracer49_del2       =   4.5311585088537E-08
(PID.TID 0000.0001) %MON trcstat_ptracer50_max        =   5.6669416127277E-05
(PID.TID 0000.0001) %MON trcstat_ptracer50_min        =   9.6060133815965E-51
(PID.TID 0000.0001) %MON trcstat_ptracer50_mean       =   1.6491974750538E-07
(PID.TID 0000.0001) %MON trcstat_ptracer50_sd         =   2.2654056914863E-06
(PID.TID 0000.0001) %MON trcstat_ptracer50_del2       =   4.1072655594060E-08
(PID.TID 0000.0001) %MON trcstat_ptracer51_max        =   5.6154514304356E-05
(PID.TID 0000.0001) %MON trcstat_ptracer51_min        =   1.0000000771526E-50
(PID.TID 0000.0001) %MON trcstat_ptracer51_mean       =   1.4086085556603E-07
(PID.TID 0000.0001) %MON trcstat_ptracer51_sd         =   1.8156053847843E-06
(PID.TID 0000.0001) %MON trcstat_ptracer51_del2       =   4.5238825743648E-08
(PID.TID 0000.0001) %MON trcstat_ptracer52_max        =   5.7823897149669E-05
(PID.TID 0000.0001) %MON trcstat_ptracer52_min        =   4.5021408388313E-50
(PID.TID 0000.0001) %MON trcstat_ptracer52_mean       =   1.4694350410107E-07
(PID.TID 0000.0001) %MON trcstat_ptracer52_sd         =   2.1488110456059E-06
(PID.TID 0000.0001) %MON trcstat_ptracer52_del2       =   4.1902274030676E-08
(PID.TID 0000.0001) %MON trcstat_ptracer53_max        =   5.2565898015820E-05
(PID.TID 0000.0001) %MON trcstat_ptracer53_min        =  -2.5752047644440E-17
(PID.TID 0000.0001) %MON trcstat_ptracer53_mean       =   1.0664209118057E-07
(PID.TID 0000.0001) %MON trcstat_ptracer53_sd         =   1.6648684894533E-06
(PID.TID 0000.0001) %MON trcstat_ptracer53_del2       =   4.6278587385671E-08
(PID.TID 0000.0001) %MON trcstat_ptracer54_max        =   5.6052070193400E-05
(PID.TID 0000.0001) %MON trcstat_ptracer54_min        =  -4.2532941173473E-18
(PID.TID 0000.0001) %MON trcstat_ptracer54_mean       =   1.2517515464708E-07
(PID.TID 0000.0001) %MON trcstat_ptracer54_sd         =   1.8060168422318E-06
(PID.TID 0000.0001) %MON trcstat_ptracer54_del2       =   4.5309046031557E-08
(PID.TID 0000.0001) %MON trcstat_ptracer55_max        =   5.2565898015639E-05
(PID.TID 0000.0001) %MON trcstat_ptracer55_min        =  -2.1331619230972E-23
(PID.TID 0000.0001) %MON trcstat_ptracer55_mean       =   1.0664209149588E-07
(PID.TID 0000.0001) %MON trcstat_ptracer55_sd         =   1.6648684894307E-06
(PID.TID 0000.0001) %MON trcstat_ptracer55_del2       =   4.6278587385676E-08
(PID.TID 0000.0001) %MON trcstat_ptracer56_max        =   2.9259588362296E-02
(PID.TID 0000.0001) %MON trcstat_ptracer56_min        =   4.4595271831068E-41
(PID.TID 0000.0001) %MON trcstat_ptracer56_mean       =   3.3187405131294E-04
(PID.TID 0000.0001) %MON trcstat_ptracer56_sd         =   1.8422140399947E-03
(PID.TID 0000.0001) %MON trcstat_ptracer56_del2       =   9.4244632862389E-06
(PID.TID 0000.0001) %MON trcstat_ptracer57_max        =   5.3158063213666E-04
(PID.TID 0000.0001) %MON trcstat_ptracer57_min        =   1.6274200738809E-44
(PID.TID 0000.0001) %MON trcstat_ptracer57_mean       =   9.6322308694641E-07
(PID.TID 0000.0001) %MON trcstat_ptracer57_sd         =   9.6040997697372E-06
(PID.TID 0000.0001) %MON trcstat_ptracer57_del2       =   8.9241389409507E-08
(PID.TID 0000.0001) %MON trcstat_ptracer58_max        =   1.0817196828640E-04
(PID.TID 0000.0001) %MON trcstat_ptracer58_min        =   9.9302950598502E-34
(PID.TID 0000.0001) %MON trcstat_ptracer58_mean       =   2.2043262734280E-07
(PID.TID 0000.0001) %MON trcstat_ptracer58_sd         =   3.3321706129509E-06
(PID.TID 0000.0001) %MON trcstat_ptracer58_del2       =   4.4425063509268E-08
(PID.TID 0000.0001) %MON trcstat_ptracer59_max        =   7.8200129918761E-05
(PID.TID 0000.0001) %MON trcstat_ptracer59_min        =   9.7961244547969E-51
(PID.TID 0000.0001) %MON trcstat_ptracer59_mean       =   2.0527454961594E-07
(PID.TID 0000.0001) %MON trcstat_ptracer59_sd         =   2.5690334244964E-06
(PID.TID 0000.0001) %MON trcstat_ptracer59_del2       =   4.1625446223955E-08
(PID.TID 0000.0001) %MON trcstat_ptracer60_max        =   7.6997167573635E-05
(PID.TID 0000.0001) %MON trcstat_ptracer60_min        =  -6.1992234955827E-32
(PID.TID 0000.0001) %MON trcstat_ptracer60_mean       =   2.0720801451399E-07
(PID.TID 0000.0001) %MON trcstat_ptracer60_sd         =   2.9443858763157E-06
(PID.TID 0000.0001) %MON trcstat_ptracer60_del2       =   3.9605529833546E-08
(PID.TID 0000.0001) %MON trcstat_ptracer61_max        =   6.9270225683514E-05
(PID.TID 0000.0001) %MON trcstat_ptracer61_min        =   6.6455785694388E-30
(PID.TID 0000.0001) %MON trcstat_ptracer61_mean       =   1.5281255492831E-07
(PID.TID 0000.0001) %MON trcstat_ptracer61_sd         =   2.3973505920026E-06
(PID.TID 0000.0001) %MON trcstat_ptracer61_del2       =   4.1329387359017E-08
(PID.TID 0000.0001) %MON trcstat_ptracer62_max        =   6.9627563814953E-05
(PID.TID 0000.0001) %MON trcstat_ptracer62_min        =   9.9279890477393E-51
(PID.TID 0000.0001) %MON trcstat_ptracer62_mean       =   1.7186719444063E-07
(PID.TID 0000.0001) %MON trcstat_ptracer62_sd         =   2.2191733757882E-06
(PID.TID 0000.0001) %MON trcstat_ptracer62_del2       =   4.3920002277658E-08
(PID.TID 0000.0001) %MON trcstat_ptracer63_max        =   6.7718600639469E-05
(PID.TID 0000.0001) %MON trcstat_ptracer63_min        =   9.5790371641074E-51
(PID.TID 0000.0001) %MON trcstat_ptracer63_mean       =   2.4323998571505E-07
(PID.TID 0000.0001) %MON trcstat_ptracer63_sd         =   2.9695724862512E-06
(PID.TID 0000.0001) %MON trcstat_ptracer63_del2       =   3.8570050189322E-08
(PID.TID 0000.0001) %MON trcstat_ptracer64_max        =   4.6244493073146E-04
(PID.TID 0000.0001) %MON trcstat_ptracer64_min        =  -1.7896198135753E-24
(PID.TID 0000.0001) %MON trcstat_ptracer64_mean       =   1.8225910869492E-06
(PID.TID 0000.0001) %MON trcstat_ptracer64_sd         =   1.7076614476446E-05
(PID.TID 0000.0001) %MON trcstat_ptracer64_del2       =   2.2714466645963E-07
(PID.TID 0000.0001) %MON trcstat_ptracer65_max        =   5.4220407147575E-05
(PID.TID 0000.0001) %MON trcstat_ptracer65_min        =   4.1082450646689E-18
(PID.TID 0000.0001) %MON trcstat_ptracer65_mean       =   1.1631733480296E-07
(PID.TID 0000.0001) %MON trcstat_ptracer65_sd         =   1.7587394848399E-06
(PID.TID 0000.0001) %MON trcstat_ptracer65_del2       =   4.5431655944618E-08
(PID.TID 0000.0001) %MON trcstat_ptracer66_max        =   5.6097786512542E-05
(PID.TID 0000.0001) %MON trcstat_ptracer66_min        =  -5.1234188284283E-19
(PID.TID 0000.0001) %MON trcstat_ptracer66_mean       =   1.2533230609382E-07
(PID.TID 0000.0001) %MON trcstat_ptracer66_sd         =   1.8075647308400E-06
(PID.TID 0000.0001) %MON trcstat_ptracer66_del2       =   4.5277729316105E-08
(PID.TID 0000.0001) %MON trcstat_ptracer67_max        =   5.2565898015390E-05
(PID.TID 0000.0001) %MON trcstat_ptracer67_min        =  -2.6396304082156E-17
(PID.TID 0000.0001) %MON trcstat_ptracer67_mean       =   1.0665089540248E-07
(PID.TID 0000.0001) %MON trcstat_ptracer67_sd         =   1.6650055170187E-06
(PID.TID 0000.0001) %MON trcstat_ptracer67_del2       =   4.6275191040767E-08
(PID.TID 0000.0001) %MON trcstat_ptracer68_max        =   5.3238841004146E-05
(PID.TID 0000.0001) %MON trcstat_ptracer68_min        =  -6.3908169319504E-25
(PID.TID 0000.0001) %MON trcstat_ptracer68_mean       =   1.0808495661218E-07
(PID.TID 0000.0001) %MON trcstat_ptracer68_sd         =   1.6882759213103E-06
(PID.TID 0000.0001) %MON trcstat_ptracer68_del2       =   4.6310709491003E-08
(PID.TID 0000.0001) %MON trcstat_ptracer69_max        =   5.6097786511461E-05
(PID.TID 0000.0001) %MON trcstat_ptracer69_min        =  -5.8636483185960E-19
(PID.TID 0000.0001) %MON trcstat_ptracer69_mean       =   1.2533228532457E-07
(PID.TID 0000.0001) %MON trcstat_ptracer69_sd         =   1.8075647322563E-06
(PID.TID 0000.0001) %MON trcstat_ptracer69_del2       =   4.5277729314264E-08
(PID.TID 0000.0001) %MON trcstat_ptracer70_max        =   5.6052070193478E-05
(PID.TID 0000.0001) %MON trcstat_ptracer70_min        =  -2.6725416286017E-18
(PID.TID 0000.0001) %MON trcstat_ptracer70_mean       =   1.2517515466339E-07
(PID.TID 0000.0001) %MON trcstat_ptracer70_sd         =   1.8060168422367E-06
(PID.TID 0000.0001) %MON trcstat_ptracer70_del2       =   4.5309046031534E-08
(PID.TID 0000.0001) %MON trcstat_ptracer71_max        =   1.1506090411367E-04
(PID.TID 0000.0001) %MON trcstat_ptracer71_min        =   7.8244644014881E-31
(PID.TID 0000.0001) %MON trcstat_ptracer71_mean       =   2.5099129331065E-07
(PID.TID 0000.0001) %MON trcstat_ptracer71_sd         =   3.5156601271263E-06
(PID.TID 0000.0001) %MON trcstat_ptracer71_del2       =   4.6118824041025E-08
(PID.TID 0000.0001) %MON trcstat_ptracer72_max        =   5.6220506993001E-05
(PID.TID 0000.0001) %MON trcstat_ptracer72_min        =   9.9844307000230E-51
(PID.TID 0000.0001) %MON trcstat_ptracer72_mean       =   1.2544636225005E-07
(PID.TID 0000.0001) %MON trcstat_ptracer72_sd         =   1.8089867099253E-06
(PID.TID 0000.0001) %MON trcstat_ptracer72_del2       =   4.5294085901361E-08
(PID.TID 0000.0001) %MON trcstat_ptracer73_max        =   1.9283933750643E-02
(PID.TID 0000.0001) %MON trcstat_ptracer73_min        =  -3.8575024320983E-19
(PID.TID 0000.0001) %MON trcstat_ptracer73_mean       =   6.2709416009062E-04
(PID.TID 0000.0001) %MON trcstat_ptracer73_sd         =   1.6844780117517E-03
(PID.TID 0000.0001) %MON trcstat_ptracer73_del2       =   1.0099628823361E-05
(PID.TID 0000.0001) %MON trcstat_ptracer74_max        =   5.4220402753768E-05
(PID.TID 0000.0001) %MON trcstat_ptracer74_min        =  -1.3361676678101E-18
(PID.TID 0000.0001) %MON trcstat_ptracer74_mean       =   1.1631008839216E-07
(PID.TID 0000.0001) %MON trcstat_ptracer74_sd         =   1.7587396116608E-06
(PID.TID 0000.0001) %MON trcstat_ptracer74_del2       =   4.5431657911707E-08
(PID.TID 0000.0001) %MON trcstat_ptracer75_max        =   5.4246167673152E-05
(PID.TID 0000.0001) %MON trcstat_ptracer75_min        =   4.9802000502346E-37
(PID.TID 0000.0001) %MON trcstat_ptracer75_mean       =   1.3876780165171E-07
(PID.TID 0000.0001) %MON trcstat_ptracer75_sd         =   1.8238013434128E-06
(PID.TID 0000.0001) %MON trcstat_ptracer75_del2       =   4.4573106567793E-08
(PID.TID 0000.0001) %MON trcstat_ptracer76_max        =   5.2523075289680E-05
(PID.TID 0000.0001) %MON trcstat_ptracer76_min        =  -2.4502685232513E-19
(PID.TID 0000.0001) %MON trcstat_ptracer76_mean       =   1.0652486706733E-07
(PID.TID 0000.0001) %MON trcstat_ptracer76_sd         =   1.6635423018712E-06
(PID.TID 0000.0001) %MON trcstat_ptracer76_del2       =   4.6308854533035E-08
(PID.TID 0000.0001) %MON trcstat_ptracer77_max        =   5.2488137942282E-05
(PID.TID 0000.0001) %MON trcstat_ptracer77_min        =   6.7813463798117E-29
(PID.TID 0000.0001) %MON trcstat_ptracer77_mean       =   1.0642502998677E-07
(PID.TID 0000.0001) %MON trcstat_ptracer77_sd         =   1.6622815068795E-06
(PID.TID 0000.0001) %MON trcstat_ptracer77_del2       =   4.6313100507020E-08
(PID.TID 0000.0001) %MON trcstat_ptracer78_max        =   5.2565897675604E-05
(PID.TID 0000.0001) %MON trcstat_ptracer78_min        =  -1.3670528639846E-17
(PID.TID 0000.0001) %MON trcstat_ptracer78_mean       =   1.0672648214629E-07
(PID.TID 0000.0001) %MON trcstat_ptracer78_sd         =   1.6664332462898E-06
(PID.TID 0000.0001) %MON trcstat_ptracer78_del2       =   4.6272560343767E-08
(PID.TID 0000.0001) %MON trcstat_ptracer79_max        =   9.5389272226887E-02
(PID.TID 0000.0001) %MON trcstat_ptracer79_min        =   3.2519588827013E-15
(PID.TID 0000.0001) %MON trcstat_ptracer79_mean       =   6.7617455032130E-03
(PID.TID 0000.0001) %MON trcstat_ptracer79_sd         =   1.0354318838461E-02
(PID.TID 0000.0001) %MON trcstat_ptracer79_del2       =   6.2328163394500E-05
(PID.TID 0000.0001) %MON trcstat_ptracer80_max        =   5.6737580280642E-05
(PID.TID 0000.0001) %MON trcstat_ptracer80_min        =  -1.4815482178491E-23
(PID.TID 0000.0001) %MON trcstat_ptracer80_mean       =   1.2627229224125E-07
(PID.TID 0000.0001) %MON trcstat_ptracer80_sd         =   1.8254994972558E-06
(PID.TID 0000.0001) %MON trcstat_ptracer80_del2       =   4.5430118037491E-08
(PID.TID 0000.0001) %MON trcstat_ptracer81_max        =   5.6246667651789E-05
(PID.TID 0000.0001) %MON trcstat_ptracer81_min        =   8.7275611711310E-51
(PID.TID 0000.0001) %MON trcstat_ptracer81_mean       =   1.4159290471375E-07
(PID.TID 0000.0001) %MON trcstat_ptracer81_sd         =   2.0169594884804E-06
(PID.TID 0000.0001) %MON trcstat_ptracer81_del2       =   4.2954532953098E-08
(PID.TID 0000.0001) %MON trcstat_ptracer82_max        =   1.4732393838462E-04
(PID.TID 0000.0001) %MON trcstat_ptracer82_min        =  -9.7367470035992E-42
(PID.TID 0000.0001) %MON trcstat_ptracer82_mean       =   5.2141085215919E-07
(PID.TID 0000.0001) %MON trcstat_ptracer82_sd         =   5.2424799372227E-06
(PID.TID 0000.0001) %MON trcstat_ptracer82_del2       =   4.5844161969530E-08
(PID.TID 0000.0001) %MON trcstat_ptracer83_max        =   2.1029271933178E-02
(PID.TID 0000.0001) %MON trcstat_ptracer83_min        =   2.1686102607256E-35
(PID.TID 0000.0001) %MON trcstat_ptracer83_mean       =   1.3288775620425E-04
(PID.TID 0000.0001) %MON trcstat_ptracer83_sd         =   8.3147822491365E-04
(PID.TID 0000.0001) %MON trcstat_ptracer83_del2       =   4.8545940292308E-06
(PID.TID 0000.0001) %MON trcstat_ptracer84_max        =   1.9439611062278E-04
(PID.TID 0000.0001) %MON trcstat_ptracer84_min        =  -3.5834620387781E-28
(PID.TID 0000.0001) %MON trcstat_ptracer84_mean       =   5.4249744860711E-07
(PID.TID 0000.0001) %MON trcstat_ptracer84_sd         =   6.6499937343868E-06
(PID.TID 0000.0001) %MON trcstat_ptracer84_del2       =   7.3082928294473E-08
(PID.TID 0000.0001) %MON trcstat_ptracer85_max        =   5.7274796817937E-05
(PID.TID 0000.0001) %MON trcstat_ptracer85_min        =   8.4292272472466E-51
(PID.TID 0000.0001) %MON trcstat_ptracer85_mean       =   1.2715236223661E-07
(PID.TID 0000.0001) %MON trcstat_ptracer85_sd         =   1.8317777652427E-06
(PID.TID 0000.0001) %MON trcstat_ptracer85_del2       =   4.5561633394037E-08
(PID.TID 0000.0001) %MON trcstat_ptracer86_max        =   5.2565898015848E-05
(PID.TID 0000.0001) %MON trcstat_ptracer86_min        =  -2.5745532390799E-17
(PID.TID 0000.0001) %MON trcstat_ptracer86_mean       =   1.0664209118073E-07
(PID.TID 0000.0001) %MON trcstat_ptracer86_sd         =   1.6648684894551E-06
(PID.TID 0000.0001) %MON trcstat_ptracer86_del2       =   4.6278587385654E-08
(PID.TID 0000.0001) %MON trcstat_ptracer87_max        =   5.6160770249019E-05
(PID.TID 0000.0001) %MON trcstat_ptracer87_min        =  -1.8778578204708E-18
(PID.TID 0000.0001) %MON trcstat_ptracer87_mean       =   1.2585602865508E-07
(PID.TID 0000.0001) %MON trcstat_ptracer87_sd         =   1.8158587596009E-06
(PID.TID 0000.0001) %MON trcstat_ptracer87_del2       =   4.5234440764561E-08
(PID.TID 0000.0001) %MON trcstat_ptracer88_max        =   5.6779275816426E-05
(PID.TID 0000.0001) %MON trcstat_ptracer88_min        =  -1.1355362096727E-18
(PID.TID 0000.0001) %MON trcstat_ptracer88_mean       =   1.2685645141349E-07
(PID.TID 0000.0001) %MON trcstat_ptracer88_sd         =   1.8311665857963E-06
(PID.TID 0000.0001) %MON trcstat_ptracer88_del2       =   4.5301346727832E-08
(PID.TID 0000.0001) %MON trcstat_ptracer89_max        =   6.2718911397336E-02
(PID.TID 0000.0001) %MON trcstat_ptracer89_min        =   4.6232205257655E-30
(PID.TID 0000.0001) %MON trcstat_ptracer89_mean       =   3.6709345263957E-03
(PID.TID 0000.0001) %MON trcstat_ptracer89_sd         =   7.9576241588474E-03
(PID.TID 0000.0001) %MON trcstat_ptracer89_del2       =   2.9983445442939E-05
(PID.TID 0000.0001) %MON trcstat_ptracer90_max        =   5.5315218999772E-05
(PID.TID 0000.0001) %MON trcstat_ptracer90_min        =  -1.3589440172057E-18
(PID.TID 0000.0001) %MON trcstat_ptracer90_mean       =   1.1809077565428E-07
(PID.TID 0000.0001) %MON trcstat_ptracer90_sd         =   1.7880830417894E-06
(PID.TID 0000.0001) %MON trcstat_ptracer90_del2       =   4.5637122051469E-08
(PID.TID 0000.0001) %MON trcstat_ptracer91_max        =   2.4380563320506E-04
(PID.TID 0000.0001) %MON trcstat_ptracer91_min        =   2.3660206681711E-24
(PID.TID 0000.0001) %MON trcstat_ptracer91_mean       =   5.5850766044117E-07
(PID.TID 0000.0001) %MON trcstat_ptracer91_sd         =   7.1989983470522E-06
(PID.TID 0000.0001) %MON trcstat_ptracer91_del2       =   9.9302261128318E-08
(PID.TID 0000.0001) %MON trcstat_ptracer92_max        =   3.2416403771814E-04
(PID.TID 0000.0001) %MON trcstat_ptracer92_min        =   8.9658366648922E-43
(PID.TID 0000.0001) %MON trcstat_ptracer92_mean       =   1.6458909110484E-06
(PID.TID 0000.0001) %MON trcstat_ptracer92_sd         =   1.3591435432836E-05
(PID.TID 0000.0001) %MON trcstat_ptracer92_del2       =   1.0102411284708E-07
(PID.TID 0000.0001) %MON trcstat_ptracer93_max        =   7.3596784905421E-03
(PID.TID 0000.0001) %MON trcstat_ptracer93_min        =   3.4057533336872E-33
(PID.TID 0000.0001) %MON trcstat_ptracer93_mean       =   1.0742302724458E-04
(PID.TID 0000.0001) %MON trcstat_ptracer93_sd         =   4.2550205007602E-04
(PID.TID 0000.0001) %MON trcstat_ptracer93_del2       =   3.3916639860108E-06
(PID.TID 0000.0001) %MON trcstat_ptracer94_max        =   5.2565904307691E-05
(PID.TID 0000.0001) %MON trcstat_ptracer94_min        =   1.2412469975397E-28
(PID.TID 0000.0001) %MON trcstat_ptracer94_mean       =   1.0664327130878E-07
(PID.TID 0000.0001) %MON trcstat_ptracer94_sd         =   1.6648688295228E-06
(PID.TID 0000.0001) %MON trcstat_ptracer94_del2       =   4.6278585282561E-08
(PID.TID 0000.0001) %MON trcstat_ptracer95_max        =   5.6014776270825E-05
(PID.TID 0000.0001) %MON trcstat_ptracer95_min        =  -4.2349792754670E-18
(PID.TID 0000.0001) %MON trcstat_ptracer95_mean       =   1.2504682139035E-07
(PID.TID 0000.0001) %MON trcstat_ptracer95_sd         =   1.8046026055445E-06
(PID.TID 0000.0001) %MON trcstat_ptracer95_del2       =   4.5313437623177E-08
(PID.TID 0000.0001) %MON trcstat_ptracer96_max        =   5.2565898015079E-05
(PID.TID 0000.0001) %MON trcstat_ptracer96_min        =  -2.6866131328269E-17
(PID.TID 0000.0001) %MON trcstat_ptracer96_mean       =   1.0664209117843E-07
(PID.TID 0000.0001) %MON trcstat_ptracer96_sd         =   1.6648684894225E-06
(PID.TID 0000.0001) %MON trcstat_ptracer96_del2       =   4.6278587385966E-08
(PID.TID 0000.0001) %MON trcstat_ptracer97_max        =   8.0935421058510E-04
(PID.TID 0000.0001) %MON trcstat_ptracer97_min        =   1.0000000000689E-50
(PID.TID 0000.0001) %MON trcstat_ptracer97_mean       =   1.5736467592422E-06
(PID.TID 0000.0001) %MON trcstat_ptracer97_sd         =   1.5813038824700E-05
(PID.TID 0000.0001) %MON trcstat_ptracer97_del2       =   1.3250798930379E-07
(PID.TID 0000.0001) %MON trcstat_ptracer98_max        =   7.3541183391920E-05
(PID.TID 0000.0001) %MON trcstat_ptracer98_min        =  -1.0142713498637E-23
(PID.TID 0000.0001) %MON trcstat_ptracer98_mean       =   2.0584919542320E-07
(PID.TID 0000.0001) %MON trcstat_ptracer98_sd         =   2.8728711949439E-06
(PID.TID 0000.0001) %MON trcstat_ptracer98_del2       =   3.9374194552108E-08
(PID.TID 0000.0001) %MON trcstat_ptracer99_max        =   5.4140185261171E-05
(PID.TID 0000.0001) %MON trcstat_ptracer99_min        =  -9.8828352731297E-22
(PID.TID 0000.0001) %MON trcstat_ptracer99_mean       =   1.1606395669232E-07
(PID.TID 0000.0001) %MON trcstat_ptracer99_sd         =   1.7559850156774E-06
(PID.TID 0000.0001) %MON trcstat_ptracer99_del2       =   4.5467565408705E-08
(PID.TID 0000.0001) // =======================================================
(PID.TID 0000.0001) // End MONITOR ptracers field statistics
(PID.TID 0000.0001) // =======================================================
 Compute Stats, Diag. #   1605  SIqsw     vol(   0 ): 4.767E+11  Parms: SM      U1      
 Compute Stats, Diag. #     86  oceQsw    vol(   0 ): 4.767E+11  Parms: SM      U1      
 Compute Stats, Diag. #   1497  PAR       vol(   0 ): 2.820E+13  Parms: SM P    MR      
 Compute Stats, Diag. #    176  EXFswnet  vol(   0 ): 4.767E+11  Parms: SM      U1      
 Compute Stats, Diag. #    178  EXFswdn   vol(   0 ): 4.767E+11  Parms: SM      U1      
 Compute Stats, Diag. #     26  THETA     vol(   0 ): 2.820E+13  Parms: SMR     MR      
 Compute Stats, Diag. #     29  SALTanom  vol(   0 ): 2.820E+13  Parms: SMR     MR      
 Compute Stats, Diag. #   1498  PP        vol(   0 ): 2.820E+13  Parms: SM P    MR      
 Compute Stats, Diag. #   1223  TRAC79    vol(   0 ): 2.820E+13  Parms: SMR     MR      
 Compute Stats, Diag. #     23  ETAN      vol(   0 ): 4.767E+11  Parms: SM      M1      
 Compute Stats, Diag. #    235  TRAC03    vol(   0 ): 2.820E+13  Parms: SMR     MR      
 Compute Stats, Diag. #   1579  Diver1    vol(   0 ): 2.820E+13  Parms: SM P    MR      
 Compute Stats, Diag. #   1580  Diver2    vol(   0 ): 2.820E+13  Parms: SM P    MR      
 Compute Stats, Diag. #   1581  Diver3    vol(   0 ): 2.820E+13  Parms: SM P    MR      
 Compute Stats, Diag. #   1582  Diver4    vol(   0 ): 2.820E+13  Parms: SM P    MR      
 Compute Stats, Diag. #   1583  Shannon   vol(   0 ): 2.820E+13  Parms: SM P    MR      
 Compute Stats, Diag. #   1584  Simpson   vol(   0 ): 2.820E+13  Parms: SM P    MR      
(PID.TID 0000.0001) // =======================================================
(PID.TID 0000.0001) // Begin MONITOR EXF statistics
(PID.TID 0000.0001) // =======================================================
(PID.TID 0000.0001) %MON exf_tsnumber                 =                188391
(PID.TID 0000.0001) %MON exf_time_sec                 =   2.2606920000000E+08
(PID.TID 0000.0001) %MON exf_ustress_max              =   2.6644568607776E-01
(PID.TID 0000.0001) %MON exf_ustress_min              =  -3.4999418339510E-02
(PID.TID 0000.0001) %MON exf_ustress_mean             =   7.4351229974463E-02
(PID.TID 0000.0001) %MON exf_ustress_sd               =   7.4370999907671E-02
(PID.TID 0000.0001) %MON exf_ustress_del2             =   6.0023697928477E-05
(PID.TID 0000.0001) %MON exf_vstress_max              =   1.6109637189969E-01
(PID.TID 0000.0001) %MON exf_vstress_min              =  -1.8222119190015E-01
(PID.TID 0000.0001) %MON exf_vstress_mean             =  -2.1681116751421E-02
(PID.TID 0000.0001) %MON exf_vstress_sd               =   7.3308219850175E-02
(PID.TID 0000.0001) %MON exf_vstress_del2             =   5.5395671540511E-05
(PID.TID 0000.0001) %MON exf_hflux_max                =   6.7435674168828E+01
(PID.TID 0000.0001) %MON exf_hflux_min                =  -1.6615988808630E+02
(PID.TID 0000.0001) %MON exf_hflux_mean               =  -6.8964095341730E+01
(PID.TID 0000.0001) %MON exf_hflux_sd                 =   5.7012507801831E+01
(PID.TID 0000.0001) %MON exf_hflux_del2               =   3.6053904805571E-01
(PID.TID 0000.0001) %MON exf_sflux_max                =   9.1058324942750E-09
(PID.TID 0000.0001) %MON exf_sflux_min                =  -2.8377381678700E-07
(PID.TID 0000.0001) %MON exf_sflux_mean               =  -9.3029629146813E-08
(PID.TID 0000.0001) %MON exf_sflux_sd                 =   6.8779983562842E-08
(PID.TID 0000.0001) %MON exf_sflux_del2               =   1.1591216276371E-10
(PID.TID 0000.0001) %MON exf_uwind_max                =   1.1855495563626E+01
(PID.TID 0000.0001) %MON exf_uwind_min                =  -2.6125301098458E+00
(PID.TID 0000.0001) %MON exf_uwind_mean               =   5.5602340054621E+00
(PID.TID 0000.0001) %MON exf_uwind_sd                 =   3.6516886045255E+00
(PID.TID 0000.0001) %MON exf_uwind_del2               =   1.5878568029193E-03
(PID.TID 0000.0001) %MON exf_vwind_max                =   1.0422203187562E+01
(PID.TID 0000.0001) %MON exf_vwind_min                =  -8.3659073602354E+00
(PID.TID 0000.0001) %MON exf_vwind_mean               =  -1.4505193297721E+00
(PID.TID 0000.0001) %MON exf_vwind_sd                 =   5.3121927060590E+00
(PID.TID 0000.0001) %MON exf_vwind_del2               =   2.0427123224184E-03
(PID.TID 0000.0001) %MON exf_wspeed_max               =   1.3600702280435E+01
(PID.TID 0000.0001) %MON exf_wspeed_min               =   3.9053919379123E+00
(PID.TID 0000.0001) %MON exf_wspeed_mean              =   8.2801707331326E+00
(PID.TID 0000.0001) %MON exf_wspeed_sd                =   2.4521831421087E+00
(PID.TID 0000.0001) %MON exf_wspeed_del2              =   6.9333509572292E-02
(PID.TID 0000.0001) %MON exf_atemp_max                =   2.7980717683929E+02
(PID.TID 0000.0001) %MON exf_atemp_min                =   2.6689778854721E+02
(PID.TID 0000.0001) %MON exf_atemp_mean               =   2.7511922883432E+02
(PID.TID 0000.0001) %MON exf_atemp_sd                 =   2.5339357357315E+00
(PID.TID 0000.0001) %MON exf_atemp_del2               =   1.8112347123486E-02
(PID.TID 0000.0001) %MON exf_aqh_max                  =   5.9884288922226E-03
(PID.TID 0000.0001) %MON exf_aqh_min                  =   2.3918565401378E-03
(PID.TID 0000.0001) %MON exf_aqh_mean                 =   4.3011443793435E-03
(PID.TID 0000.0001) %MON exf_aqh_sd                   =   7.2391808043025E-04
(PID.TID 0000.0001) %MON exf_aqh_del2                 =   2.9355777788202E-05
(PID.TID 0000.0001) %MON exf_lwflux_max               =   8.1841077162095E+01
(PID.TID 0000.0001) %MON exf_lwflux_min               =   6.8884544054885E+00
(PID.TID 0000.0001) %MON exf_lwflux_mean              =   4.0955723526940E+01
(PID.TID 0000.0001) %MON exf_lwflux_sd                =   1.9155073357802E+01
(PID.TID 0000.0001) %MON exf_lwflux_del2              =   2.8256787472275E-01
(PID.TID 0000.0001) %MON exf_precip_max               =   2.8536487438252E-07
(PID.TID 0000.0001) %MON exf_precip_min               =   5.1409160208117E-09
(PID.TID 0000.0001) %MON exf_precip_mean              =   8.9661069870054E-08
(PID.TID 0000.0001) %MON exf_precip_sd                =   6.7653522031297E-08
(PID.TID 0000.0001) %MON exf_precip_del2              =   1.1771648479674E-09
(PID.TID 0000.0001) %MON exf_swflux_max               =  -8.3892029753665E+01
(PID.TID 0000.0001) %MON exf_swflux_min               =  -1.9705000172199E+02
(PID.TID 0000.0001) %MON exf_swflux_mean              =  -1.3082241341569E+02
(PID.TID 0000.0001) %MON exf_swflux_sd                =   2.9759038189174E+01
(PID.TID 0000.0001) %MON exf_swflux_del2              =   2.9785405386522E-02
(PID.TID 0000.0001) %MON exf_evap_max                 =   2.5196332445636E-08
(PID.TID 0000.0001) %MON exf_evap_min                 =  -1.2085967148034E-08
(PID.TID 0000.0001) %MON exf_evap_mean                =   5.2951505406538E-09
(PID.TID 0000.0001) %MON exf_evap_sd                  =   8.1818675355819E-09
(PID.TID 0000.0001) %MON exf_evap_del2                =   8.5879282260365E-11
(PID.TID 0000.0001) %MON exf_swdown_max               =   2.3182353143763E+02
(PID.TID 0000.0001) %MON exf_swdown_min               =   9.8696505592547E+01
(PID.TID 0000.0001) %MON exf_swdown_mean              =   1.5390872166551E+02
(PID.TID 0000.0001) %MON exf_swdown_sd                =   3.5010633163734E+01
(PID.TID 0000.0001) %MON exf_swdown_del2              =   1.0132733605913E+00
(PID.TID 0000.0001) %MON exf_lwdown_max               =   3.0434905842578E+02
(PID.TID 0000.0001) %MON exf_lwdown_min               =   2.4207456790914E+02
(PID.TID 0000.0001) %MON exf_lwdown_mean              =   2.7412690918285E+02
(PID.TID 0000.0001) %MON exf_lwdown_sd                =   1.5083462948753E+01
(PID.TID 0000.0001) %MON exf_lwdown_del2              =   2.0643133494166E+00
(PID.TID 0000.0001) %MON exf_runoff_max               =   7.4975011851692E-08
(PID.TID 0000.0001) %MON exf_runoff_min               =   0.0000000000000E+00
(PID.TID 0000.0001) %MON exf_runoff_mean              =   8.6637098174130E-09
(PID.TID 0000.0001) %MON exf_runoff_sd                =   1.9487938307725E-08
(PID.TID 0000.0001) %MON exf_runoff_del2              =   6.8076164467882E-11
(PID.TID 0000.0001) %MON exf_climsss_max              =   3.4374135480701E+01
(PID.TID 0000.0001) %MON exf_climsss_min              =   2.9704156415226E+00
(PID.TID 0000.0001) %MON exf_climsss_mean             =   1.2720517329396E+01
(PID.TID 0000.0001) %MON exf_climsss_sd               =   1.0010246181933E+01
(PID.TID 0000.0001) %MON exf_climsss_del2             =   3.2300220279076E-03
(PID.TID 0000.0001) // =======================================================
(PID.TID 0000.0001) // End MONITOR EXF statistics
(PID.TID 0000.0001) // =======================================================
 SEAICE_LSR: Residual Initial ipass,Uice,Vice=    1  2.08845594E-02  2.15496528E-02
 SEAICE_LSR: Residual FrDrift U_fd,V_fd=  3.26955716E+02  2.33449515E+02
 SEAICE_LSR (ipass=   1) iters,dU,Resid=    66  9.95932704E-05  4.35628322E-04
 SEAICE_LSR (ipass=   1) iters,dV,Resid=    56  9.73354501E-05  5.44888583E-04
 SEAICE_LSR: Residual Initial ipass,Uice,Vice=    2  1.96141384E-02  1.90321820E-02
 SEAICE_LSR: Residual FrDrift U_fd,V_fd=  3.27012754E+02  2.33615857E+02
 SEAICE_LSR (ipass=   2) iters,dU,Resid=    26  9.73858914E-05  1.23854581E-03
 SEAICE_LSR (ipass=   2) iters,dV,Resid=    18  9.12879148E-05  3.37644676E-03
 cg2d: Sum(rhs),rhsMax =  -6.09350142515679E+02  2.80145246218438E-01
(PID.TID 0000.0001)      cg2d_init_res =   1.79643348877412E-01
(PID.TID 0000.0001)      cg2d_iters(min,last) =      -1      20
(PID.TID 0000.0001)      cg2d_last_res =   6.00252015082988E-06
(PID.TID 0000.0001) // =======================================================
(PID.TID 0000.0001) // Begin MONITOR dynamic field statistics
(PID.TID 0000.0001) // =======================================================
(PID.TID 0000.0001) %MON time_tsnumber                =                188392
(PID.TID 0000.0001) %MON time_secondsf                =   2.2607040000000E+08
(PID.TID 0000.0001) %MON dynstat_eta_max              =   6.5946739655878E-01
(PID.TID 0000.0001) %MON dynstat_eta_min              =   5.2952105802713E-02
(PID.TID 0000.0001) %MON dynstat_eta_mean             =   3.7231404183316E-01
(PID.TID 0000.0001) %MON dynstat_eta_sd               =   1.5130382182937E-01
(PID.TID 0000.0001) %MON dynstat_eta_del2             =   3.3095968216700E-04
(PID.TID 0000.0001) %MON dynstat_uvel_max             =   3.8573732761319E-01
(PID.TID 0000.0001) %MON dynstat_uvel_min             =  -3.3822313220984E-01
(PID.TID 0000.0001) %MON dynstat_uvel_mean            =   5.0996829245724E-03
(PID.TID 0000.0001) %MON dynstat_uvel_sd              =   6.1944747989495E-02
(PID.TID 0000.0001) %MON dynstat_uvel_del2            =   9.7021503309828E-04
(PID.TID 0000.0001) %MON dynstat_vvel_max             =   2.6263023753985E-01
(PID.TID 0000.0001) %MON dynstat_vvel_min             =  -4.4623192792930E-01
(PID.TID 0000.0001) %MON dynstat_vvel_mean            =   2.7533767641280E-03
(PID.TID 0000.0001) %MON dynstat_vvel_sd              =   6.3528842549935E-02
(PID.TID 0000.0001) %MON dynstat_vvel_del2            =   1.1560257367040E-03
(PID.TID 0000.0001) %MON dynstat_wvel_max             =   4.9238990252848E-04
(PID.TID 0000.0001) %MON dynstat_wvel_min             =  -5.0578546584351E-04
(PID.TID 0000.0001) %MON dynstat_wvel_mean            =  -2.6265791300628E-06
(PID.TID 0000.0001) %MON dynstat_wvel_sd              =   7.4647620746947E-05
(PID.TID 0000.0001) %MON dynstat_wvel_del2            =   2.0199971949582E-06
(PID.TID 0000.0001) %MON dynstat_theta_max            =   7.9705198913678E+00
(PID.TID 0000.0001) %MON dynstat_theta_min            =  -1.6120808590173E+00
(PID.TID 0000.0001) %MON dynstat_theta_mean           =   3.7809851590656E+00
(PID.TID 0000.0001) %MON dynstat_theta_sd             =   2.2007592807158E+00
(PID.TID 0000.0001) %MON dynstat_theta_del2           =   6.0286263627078E-03
(PID.TID 0000.0001) %MON dynstat_salt_max             =   3.4928013332357E+01
(PID.TID 0000.0001) %MON dynstat_salt_min             =   5.6522507612924E+00
(PID.TID 0000.0001) %MON dynstat_salt_mean            =   1.5353123288452E+01
(PID.TID 0000.0001) %MON dynstat_salt_sd              =   1.1951658038105E+01
(PID.TID 0000.0001) %MON dynstat_salt_del2            =   3.5912776645384E-03
(PID.TID 0000.0001) %MON forcing_qnet_max             =   3.3860916756584E+02
(PID.TID 0000.0001) %MON forcing_qnet_min             =  -1.6615988808630E+02
(PID.TID 0000.0001) %MON forcing_qnet_mean            =  -5.3986179281759E+01
(PID.TID 0000.0001) %MON forcing_qnet_sd              =   5.9010157721339E+01
(PID.TID 0000.0001) %MON forcing_qnet_del2            =   1.2785542710714E+00
(PID.TID 0000.0001) %MON forcing_qsw_max              =   0.0000000000000E+00
(PID.TID 0000.0001) %MON forcing_qsw_min              =  -1.9705000172199E+02
(PID.TID 0000.0001) %MON forcing_qsw_mean             =  -1.0760546897773E+02
(PID.TID 0000.0001) %MON forcing_qsw_sd               =   6.0814696917238E+01
(PID.TID 0000.0001) %MON forcing_qsw_del2             =   4.5930241238418E-01
(PID.TID 0000.0001) %MON forcing_empmr_max            =   4.5738436174767E-05
(PID.TID 0000.0001) %MON forcing_empmr_min            =  -1.3065295074650E-03
(PID.TID 0000.0001) %MON forcing_empmr_mean           =  -9.6222726970486E-05
(PID.TID 0000.0001) %MON forcing_empmr_sd             =   1.0665704337612E-04
(PID.TID 0000.0001) %MON forcing_empmr_del2           =   4.0482662376256E-06
(PID.TID 0000.0001) %MON forcing_fu_max               =   2.6589542255847E-01
(PID.TID 0000.0001) %MON forcing_fu_min               =  -5.5121705211344E-02
(PID.TID 0000.0001) %MON forcing_fu_mean              =   7.5245300508422E-02
(PID.TID 0000.0001) %MON forcing_fu_sd                =   7.6506160419874E-02
(PID.TID 0000.0001) %MON forcing_fu_del2              =   2.3082701662701E-04
(PID.TID 0000.0001) %MON forcing_fv_max               =   1.4386676384029E-01
(PID.TID 0000.0001) %MON forcing_fv_min               =  -1.8200630067399E-01
(PID.TID 0000.0001) %MON forcing_fv_mean              =  -3.5104856520509E-02
(PID.TID 0000.0001) %MON forcing_fv_sd                =   5.7609424863850E-02
(PID.TID 0000.0001) %MON forcing_fv_del2              =   2.7362064322289E-04
(PID.TID 0000.0001) %MON advcfl_uvel_max              =   2.2783332952253E-02
(PID.TID 0000.0001) %MON advcfl_vvel_max              =   3.2778294179429E-02
(PID.TID 0000.0001) %MON advcfl_wvel_max              =   5.9086788303417E-02
(PID.TID 0000.0001) %MON advcfl_W_hf_max              =   5.9086788303417E-02
(PID.TID 0000.0001) %MON pe_b_mean                    =   1.3665618070533E-02
(PID.TID 0000.0001) %MON ke_max                       =   1.0607107798594E-01
(PID.TID 0000.0001) %MON ke_mean                      =   3.1934708593218E-03
(PID.TID 0000.0001) %MON ke_vol                       =   2.7634533915294E+13
(PID.TID 0000.0001) %MON vort_r_min                   =  -3.5801370058146E-05
(PID.TID 0000.0001) %MON vort_r_max                   =   3.3341501439947E-05
(PID.TID 0000.0001) %MON vort_a_mean                  =   1.2397552845231E-04
(PID.TID 0000.0001) %MON vort_a_sd                    =   6.2702894161827E-06
(PID.TID 0000.0001) %MON vort_p_mean                  =   1.7325640948570E-04
(PID.TID 0000.0001) %MON vort_p_sd                    =   1.0959335664746E-04
(PID.TID 0000.0001) %MON surfExpan_theta_mean         =  -8.1395258095977E-08
(PID.TID 0000.0001) %MON surfExpan_salt_mean          =   1.6548796363436E-06
(PID.TID 0000.0001) // =======================================================
(PID.TID 0000.0001) // End MONITOR dynamic field statistics
(PID.TID 0000.0001) // =======================================================
(PID.TID 0000.0001) // =======================================================
(PID.TID 0000.0001) // Begin OBCS MONITOR field statistics
(PID.TID 0000.0001) // =======================================================
(PID.TID 0000.0001) %MON obc_W_uVel_max               =   7.0301566347616E-02
(PID.TID 0000.0001) %MON obc_W_uVel_min               =  -1.2513943050881E-02
(PID.TID 0000.0001) %MON obc_W_uVel_mean              =   2.2505036616222E-02
(PID.TID 0000.0001) %MON obc_W_uVel_sd                =   2.5867082242057E-02
(PID.TID 0000.0001) %MON obc_W_uVel_Int               =   4.7331527538412E+04
(PID.TID 0000.0001) %MON obc_N_vVel_max               =   1.8553375570826E-01
(PID.TID 0000.0001) %MON obc_N_vVel_min               =  -2.5360847069103E-01
(PID.TID 0000.0001) %MON obc_N_vVel_mean              =   1.5206960613707E-03
(PID.TID 0000.0001) %MON obc_N_vVel_sd                =   8.5364009680268E-02
(PID.TID 0000.0001) %MON obc_N_vVel_Int               =   4.7708047577853E+04
(PID.TID 0000.0001) // =======================================================
(PID.TID 0000.0001) // End OBCS MONITOR field statistics
(PID.TID 0000.0001) // =======================================================
(PID.TID 0000.0001) // =======================================================
(PID.TID 0000.0001) // Begin MONITOR SEAICE statistics
(PID.TID 0000.0001) // =======================================================
(PID.TID 0000.0001) %MON seaice_tsnumber              =                188392
(PID.TID 0000.0001) %MON seaice_time_sec              =   2.2607040000000E+08
(PID.TID 0000.0001) %MON seaice_uice_max              =   5.5540398592270E-01
(PID.TID 0000.0001) %MON seaice_uice_min              =  -2.6809469822351E-01
(PID.TID 0000.0001) %MON seaice_uice_mean             =   1.1521354419917E-01
(PID.TID 0000.0001) %MON seaice_uice_sd               =   1.0746302900134E-01
(PID.TID 0000.0001) %MON seaice_uice_del2             =   2.7624377799176E-03
(PID.TID 0000.0001) %MON seaice_vice_max              =   3.8010119208021E-01
(PID.TID 0000.0001) %MON seaice_vice_min              =  -5.4904533656912E-01
(PID.TID 0000.0001) %MON seaice_vice_mean             =  -7.3089364772522E-02
(PID.TID 0000.0001) %MON seaice_vice_sd               =   1.0613786934214E-01
(PID.TID 0000.0001) %MON seaice_vice_del2             =   2.9340289733912E-03
(PID.TID 0000.0001) %MON seaice_area_max              =   1.0000000000000E+00
(PID.TID 0000.0001) %MON seaice_area_min              =   0.0000000000000E+00
(PID.TID 0000.0001) %MON seaice_area_mean             =   2.2598589939011E-01
(PID.TID 0000.0001) %MON seaice_area_sd               =   3.8528440583273E-01
(PID.TID 0000.0001) %MON seaice_area_del2             =   4.4386222764113E-03
(PID.TID 0000.0001) %MON seaice_heff_max              =   1.0116388236822E+00
(PID.TID 0000.0001) %MON seaice_heff_min              =   0.0000000000000E+00
(PID.TID 0000.0001) %MON seaice_heff_mean             =   1.2504451744901E-01
(PID.TID 0000.0001) %MON seaice_heff_sd               =   2.4323838490143E-01
(PID.TID 0000.0001) %MON seaice_heff_del2             =   2.2277745496254E-03
(PID.TID 0000.0001) %MON seaice_hsnow_max             =   2.7638374826362E-01
(PID.TID 0000.0001) %MON seaice_hsnow_min             =   0.0000000000000E+00
(PID.TID 0000.0001) %MON seaice_hsnow_mean            =   3.0813776832265E-02
(PID.TID 0000.0001) %MON seaice_hsnow_sd              =   6.4435856144654E-02
(PID.TID 0000.0001) %MON seaice_hsnow_del2            =   3.7049783716423E-04
(PID.TID 0000.0001) %MON seaice_sitracer01_max        =   4.8000000000000E+03
(PID.TID 0000.0001) %MON seaice_sitracer01_min        =   0.0000000000000E+00
(PID.TID 0000.0001) %MON seaice_sitracer01_mean       =   1.3984003039586E+03
(PID.TID 0000.0001) %MON seaice_sitracer01_sd         =   2.1809973317235E+03
(PID.TID 0000.0001) %MON seaice_sitracer01_del2       =   3.4815495977177E+01
(PID.TID 0000.0001) %MON seaice_sitracer02_max        =   1.0000000000000E+00
(PID.TID 0000.0001) %MON seaice_sitracer02_min        =   0.0000000000000E+00
(PID.TID 0000.0001) %MON seaice_sitracer02_mean       =   3.0107822694385E-01
(PID.TID 0000.0001) %MON seaice_sitracer02_sd         =   4.5872663777483E-01
(PID.TID 0000.0001) %MON seaice_sitracer02_del2       =   6.8589265725412E-03
(PID.TID 0000.0001) // =======================================================
(PID.TID 0000.0001) // End MONITOR SEAICE statistics
(PID.TID 0000.0001) // =======================================================
(PID.TID 0000.0001) // =======================================================
(PID.TID 0000.0001) // Begin MONITOR ptracer field statistics
(PID.TID 0000.0001) // =======================================================
(PID.TID 0000.0001) %MON trcstat_ptracer01_max        =   4.3205418207461E+00
(PID.TID 0000.0001) %MON trcstat_ptracer01_min        =   3.8005614380345E-02
(PID.TID 0000.0001) %MON trcstat_ptracer01_mean       =   5.9108955973913E-01
(PID.TID 0000.0001) %MON trcstat_ptracer01_sd         =   5.1750327564942E-01
(PID.TID 0000.0001) %MON trcstat_ptracer01_del2       =   8.6436797940721E-04
(PID.TID 0000.0001) %MON trcstat_ptracer02_max        =   4.4159667511554E+01
(PID.TID 0000.0001) %MON trcstat_ptracer02_min        =   1.4930485369306E-02
(PID.TID 0000.0001) %MON trcstat_ptracer02_mean       =   4.5818575796741E+00
(PID.TID 0000.0001) %MON trcstat_ptracer02_sd         =   6.6979419803568E+00
(PID.TID 0000.0001) %MON trcstat_ptracer02_del2       =   1.2515172242841E-02
(PID.TID 0000.0001) %MON trcstat_ptracer03_max        =   1.3876603116060E-03
(PID.TID 0000.0001) %MON trcstat_ptracer03_min        =   5.8941235558079E-04
(PID.TID 0000.0001) %MON trcstat_ptracer03_mean       =   1.0854676877430E-03
(PID.TID 0000.0001) %MON trcstat_ptracer03_sd         =   1.4539163889169E-04
(PID.TID 0000.0001) %MON trcstat_ptracer03_del2       =   4.5479159332482E-07
(PID.TID 0000.0001) %MON trcstat_ptracer04_max        =   1.5669306363183E+02
(PID.TID 0000.0001) %MON trcstat_ptracer04_min        =   6.3397075158918E-02
(PID.TID 0000.0001) %MON trcstat_ptracer04_mean       =   1.4711902189489E+01
(PID.TID 0000.0001) %MON trcstat_ptracer04_sd         =   1.7083957996899E+01
(PID.TID 0000.0001) %MON trcstat_ptracer04_del2       =   2.7982870184868E-02
(PID.TID 0000.0001) %MON trcstat_ptracer05_max        =   2.8338360756001E-01
(PID.TID 0000.0001) %MON trcstat_ptracer05_min        =   8.3366785631501E-08
(PID.TID 0000.0001) %MON trcstat_ptracer05_mean       =   5.8410460808314E-02
(PID.TID 0000.0001) %MON trcstat_ptracer05_sd         =   5.6923607280240E-02
(PID.TID 0000.0001) %MON trcstat_ptracer05_del2       =   1.4694272351594E-04
(PID.TID 0000.0001) %MON trcstat_ptracer06_max        =   4.5341377209601E+00
(PID.TID 0000.0001) %MON trcstat_ptracer06_min        =   1.3338685701040E-06
(PID.TID 0000.0001) %MON trcstat_ptracer06_mean       =   9.3456737293303E-01
(PID.TID 0000.0001) %MON trcstat_ptracer06_sd         =   9.1077771648383E-01
(PID.TID 0000.0001) %MON trcstat_ptracer06_del2       =   2.3510835762550E-03
(PID.TID 0000.0001) %MON trcstat_ptracer07_max        =   2.8338360756001E-04
(PID.TID 0000.0001) %MON trcstat_ptracer07_min        =   8.3366785631503E-11
(PID.TID 0000.0001) %MON trcstat_ptracer07_mean       =   5.8410460796631E-05
(PID.TID 0000.0001) %MON trcstat_ptracer07_sd         =   5.6923607334977E-05
(PID.TID 0000.0001) %MON trcstat_ptracer07_del2       =   1.4694272392718E-07
(PID.TID 0000.0001) %MON trcstat_ptracer08_max        =   6.9815217210244E-03
(PID.TID 0000.0001) %MON trcstat_ptracer08_min        =   6.8901155300746E-33
(PID.TID 0000.0001) %MON trcstat_ptracer08_mean       =   4.7084431960727E-04
(PID.TID 0000.0001) %MON trcstat_ptracer08_sd         =   1.1065332406162E-03
(PID.TID 0000.0001) %MON trcstat_ptracer08_del2       =   3.6013899782421E-06
(PID.TID 0000.0001) %MON trcstat_ptracer09_max        =   1.1170434753639E-01
(PID.TID 0000.0001) %MON trcstat_ptracer09_min        =   1.1024184848119E-31
(PID.TID 0000.0001) %MON trcstat_ptracer09_mean       =   7.5335091137163E-03
(PID.TID 0000.0001) %MON trcstat_ptracer09_sd         =   1.7704531849860E-02
(PID.TID 0000.0001) %MON trcstat_ptracer09_del2       =   5.7622239651873E-05
(PID.TID 0000.0001) %MON trcstat_ptracer10_max        =   6.9815217225485E-06
(PID.TID 0000.0001) %MON trcstat_ptracer10_min        =   6.8901155301030E-36
(PID.TID 0000.0001) %MON trcstat_ptracer10_mean       =   4.7084432037262E-07
(PID.TID 0000.0001) %MON trcstat_ptracer10_sd         =   1.1065332421341E-06
(PID.TID 0000.0001) %MON trcstat_ptracer10_del2       =   3.6013899835368E-09
(PID.TID 0000.0001) %MON trcstat_ptracer11_max        =   8.8669762983744E-03
(PID.TID 0000.0001) %MON trcstat_ptracer11_min        =   1.9421006051539E-32
(PID.TID 0000.0001) %MON trcstat_ptracer11_mean       =   3.4599331688673E-04
(PID.TID 0000.0001) %MON trcstat_ptracer11_sd         =   1.3382653105955E-03
(PID.TID 0000.0001) %MON trcstat_ptracer11_del2       =   4.6046064110420E-06
(PID.TID 0000.0001) %MON trcstat_ptracer12_max        =   8.4258930394299E-02
(PID.TID 0000.0001) %MON trcstat_ptracer12_min        =   9.1297938013249E-23
(PID.TID 0000.0001) %MON trcstat_ptracer12_mean       =   1.7012584138712E-03
(PID.TID 0000.0001) %MON trcstat_ptracer12_sd         =   7.4937948379259E-03
(PID.TID 0000.0001) %MON trcstat_ptracer12_del2       =   3.2200331953927E-05
(PID.TID 0000.0001) %MON trcstat_ptracer13_max        =   1.3481428863088E+00
(PID.TID 0000.0001) %MON trcstat_ptracer13_min        =   1.4607670082120E-21
(PID.TID 0000.0001) %MON trcstat_ptracer13_mean       =   2.7220134621939E-02
(PID.TID 0000.0001) %MON trcstat_ptracer13_sd         =   1.1990071740681E-01
(PID.TID 0000.0001) %MON trcstat_ptracer13_del2       =   5.1520531126283E-04
(PID.TID 0000.0001) %MON trcstat_ptracer14_max        =   8.4258930446522E-05
(PID.TID 0000.0001) %MON trcstat_ptracer14_min        =   9.1297938013233E-26
(PID.TID 0000.0001) %MON trcstat_ptracer14_mean       =   1.7012584151718E-06
(PID.TID 0000.0001) %MON trcstat_ptracer14_sd         =   7.4937948414492E-06
(PID.TID 0000.0001) %MON trcstat_ptracer14_del2       =   3.2200331976892E-08
(PID.TID 0000.0001) %MON trcstat_ptracer15_max        =   9.4770200509736E-01
(PID.TID 0000.0001) %MON trcstat_ptracer15_min        =   9.4656847365678E-22
(PID.TID 0000.0001) %MON trcstat_ptracer15_mean       =   1.8533025478042E-02
(PID.TID 0000.0001) %MON trcstat_ptracer15_sd         =   9.2511726827560E-02
(PID.TID 0000.0001) %MON trcstat_ptracer15_del2       =   4.8079451978814E-04
(PID.TID 0000.0001) %MON trcstat_ptracer16_max        =   9.9343472568059E-01
(PID.TID 0000.0001) %MON trcstat_ptracer16_min        =   3.3134771231603E-09
(PID.TID 0000.0001) %MON trcstat_ptracer16_mean       =   2.0454321344099E-02
(PID.TID 0000.0001) %MON trcstat_ptracer16_sd         =   4.9065660088738E-02
(PID.TID 0000.0001) %MON trcstat_ptracer16_del2       =   2.9702663290742E-04
(PID.TID 0000.0001) %MON trcstat_ptracer17_max        =   1.5894955610889E+01
(PID.TID 0000.0001) %MON trcstat_ptracer17_min        =   5.3015633970564E-08
(PID.TID 0000.0001) %MON trcstat_ptracer17_mean       =   3.2726914150558E-01
(PID.TID 0000.0001) %MON trcstat_ptracer17_sd         =   7.8505056141981E-01
(PID.TID 0000.0001) %MON trcstat_ptracer17_del2       =   4.7524261265187E-03
(PID.TID 0000.0001) %MON trcstat_ptracer18_max        =   9.9343472568059E-04
(PID.TID 0000.0001) %MON trcstat_ptracer18_min        =   3.3134771231602E-12
(PID.TID 0000.0001) %MON trcstat_ptracer18_mean       =   2.0454321348705E-05
(PID.TID 0000.0001) %MON trcstat_ptracer18_sd         =   4.9065660085578E-05
(PID.TID 0000.0001) %MON trcstat_ptracer18_del2       =   2.9702663313218E-07
(PID.TID 0000.0001) %MON trcstat_ptracer19_max        =   3.0492830288185E+02
(PID.TID 0000.0001) %MON trcstat_ptracer19_min        =   8.9491083302457E-08
(PID.TID 0000.0001) %MON trcstat_ptracer19_mean       =   2.2923001070593E+00
(PID.TID 0000.0001) %MON trcstat_ptracer19_sd         =   1.2509896005437E+01
(PID.TID 0000.0001) %MON trcstat_ptracer19_del2       =   5.3804249222927E-02
(PID.TID 0000.0001) %MON trcstat_ptracer20_max        =   2.5375204362141E-01
(PID.TID 0000.0001) %MON trcstat_ptracer20_min        =   2.2895399141279E-07
(PID.TID 0000.0001) %MON trcstat_ptracer20_mean       =   1.3875806775544E-02
(PID.TID 0000.0001) %MON trcstat_ptracer20_sd         =   1.8284946133599E-02
(PID.TID 0000.0001) %MON trcstat_ptracer20_del2       =   8.3716872019576E-04
(PID.TID 0000.0001) %MON trcstat_ptracer21_max        =   2.3329408131396E+00
(PID.TID 0000.0001) %MON trcstat_ptracer21_min        =   3.0124098369498E-05
(PID.TID 0000.0001) %MON trcstat_ptracer21_mean       =   1.5996340602411E-01
(PID.TID 0000.0001) %MON trcstat_ptracer21_sd         =   1.8960217084385E-01
(PID.TID 0000.0001) %MON trcstat_ptracer21_del2       =   7.0992561485806E-04
(PID.TID 0000.0001) %MON trcstat_ptracer22_max        =   5.6087155518296E-05
(PID.TID 0000.0001) %MON trcstat_ptracer22_min        =  -2.1068568840795E-19
(PID.TID 0000.0001) %MON trcstat_ptracer22_mean       =   1.2530429164791E-07
(PID.TID 0000.0001) %MON trcstat_ptracer22_sd         =   1.8078909141898E-06
(PID.TID 0000.0001) %MON trcstat_ptracer22_del2       =   4.5344793856204E-08
(PID.TID 0000.0001) %MON trcstat_ptracer23_max        =   5.1928147662894E-04
(PID.TID 0000.0001) %MON trcstat_ptracer23_min        =  -2.2601834133315E-24
(PID.TID 0000.0001) %MON trcstat_ptracer23_mean       =   7.2852500859176E-06
(PID.TID 0000.0001) %MON trcstat_ptracer23_sd         =   3.9616732955749E-05
(PID.TID 0000.0001) %MON trcstat_ptracer23_del2       =   1.8834043207596E-07
(PID.TID 0000.0001) %MON trcstat_ptracer24_max        =   5.6087161564420E-05
(PID.TID 0000.0001) %MON trcstat_ptracer24_min        =   5.7059170242508E-51
(PID.TID 0000.0001) %MON trcstat_ptracer24_mean       =   1.2543487129480E-07
(PID.TID 0000.0001) %MON trcstat_ptracer24_sd         =   1.8078818764698E-06
(PID.TID 0000.0001) %MON trcstat_ptracer24_del2       =   4.5344803885307E-08
(PID.TID 0000.0001) %MON trcstat_ptracer25_max        =   1.4219335643967E-04
(PID.TID 0000.0001) %MON trcstat_ptracer25_min        =   8.0734719433763E-34
(PID.TID 0000.0001) %MON trcstat_ptracer25_mean       =   2.6914936563837E-06
(PID.TID 0000.0001) %MON trcstat_ptracer25_sd         =   1.0790949008168E-05
(PID.TID 0000.0001) %MON trcstat_ptracer25_del2       =   1.0453082086014E-07
(PID.TID 0000.0001) %MON trcstat_ptracer26_max        =   5.3424606325103E-05
(PID.TID 0000.0001) %MON trcstat_ptracer26_min        =  -2.6859527515157E-17
(PID.TID 0000.0001) %MON trcstat_ptracer26_mean       =   1.0805933164886E-07
(PID.TID 0000.0001) %MON trcstat_ptracer26_sd         =   1.6894537659152E-06
(PID.TID 0000.0001) %MON trcstat_ptracer26_del2       =   4.6377316375454E-08
(PID.TID 0000.0001) %MON trcstat_ptracer27_max        =   9.5982070017518E-03
(PID.TID 0000.0001) %MON trcstat_ptracer27_min        =   1.2852580317961E-19
(PID.TID 0000.0001) %MON trcstat_ptracer27_mean       =   2.4501000066687E-04
(PID.TID 0000.0001) %MON trcstat_ptracer27_sd         =   6.7228736249324E-04
(PID.TID 0000.0001) %MON trcstat_ptracer27_del2       =   5.2805514199710E-06
(PID.TID 0000.0001) %MON trcstat_ptracer28_max        =   9.1988374451400E-02
(PID.TID 0000.0001) %MON trcstat_ptracer28_min        =   6.7039062921614E-24
(PID.TID 0000.0001) %MON trcstat_ptracer28_mean       =   1.6126560188456E-03
(PID.TID 0000.0001) %MON trcstat_ptracer28_sd         =   5.8558384329003E-03
(PID.TID 0000.0001) %MON trcstat_ptracer28_del2       =   4.6037803028383E-05
(PID.TID 0000.0001) %MON trcstat_ptracer29_max        =   1.0580659169050E-03
(PID.TID 0000.0001) %MON trcstat_ptracer29_min        =   9.9999999999874E-51
(PID.TID 0000.0001) %MON trcstat_ptracer29_mean       =   3.0165546742914E-06
(PID.TID 0000.0001) %MON trcstat_ptracer29_sd         =   2.4317251943767E-05
(PID.TID 0000.0001) %MON trcstat_ptracer29_del2       =   1.7019066704991E-07
(PID.TID 0000.0001) %MON trcstat_ptracer30_max        =   1.2960273335936E-02
(PID.TID 0000.0001) %MON trcstat_ptracer30_min        =   1.2316165503894E-29
(PID.TID 0000.0001) %MON trcstat_ptracer30_mean       =   1.3874547028019E-04
(PID.TID 0000.0001) %MON trcstat_ptracer30_sd         =   7.1916611572242E-04
(PID.TID 0000.0001) %MON trcstat_ptracer30_del2       =   7.2570880154631E-06
(PID.TID 0000.0001) %MON trcstat_ptracer31_max        =   5.5821741210031E-05
(PID.TID 0000.0001) %MON trcstat_ptracer31_min        =   1.2549682824707E-14
(PID.TID 0000.0001) %MON trcstat_ptracer31_mean       =   1.2029772886914E-07
(PID.TID 0000.0001) %MON trcstat_ptracer31_sd         =   1.8022988559022E-06
(PID.TID 0000.0001) %MON trcstat_ptracer31_del2       =   4.5559795055079E-08
(PID.TID 0000.0001) %MON trcstat_ptracer32_max        =   5.4218377694988E-05
(PID.TID 0000.0001) %MON trcstat_ptracer32_min        =  -5.4490588694353E-19
(PID.TID 0000.0001) %MON trcstat_ptracer32_mean       =   1.1633252605768E-07
(PID.TID 0000.0001) %MON trcstat_ptracer32_sd         =   1.7594835495289E-06
(PID.TID 0000.0001) %MON trcstat_ptracer32_del2       =   4.5491135902917E-08
(PID.TID 0000.0001) %MON trcstat_ptracer33_max        =   5.2629768351049E-05
(PID.TID 0000.0001) %MON trcstat_ptracer33_min        =  -2.0618327473270E-21
(PID.TID 0000.0001) %MON trcstat_ptracer33_mean       =   1.0685394531884E-07
(PID.TID 0000.0001) %MON trcstat_ptracer33_sd         =   1.6677108517815E-06
(PID.TID 0000.0001) %MON trcstat_ptracer33_del2       =   4.6295111114383E-08
(PID.TID 0000.0001) %MON trcstat_ptracer34_max        =   5.6037410171485E-05
(PID.TID 0000.0001) %MON trcstat_ptracer34_min        =   5.6889169927784E-51
(PID.TID 0000.0001) %MON trcstat_ptracer34_mean       =   1.2530593400670E-07
(PID.TID 0000.0001) %MON trcstat_ptracer34_sd         =   1.8088528844718E-06
(PID.TID 0000.0001) %MON trcstat_ptracer34_del2       =   4.5301739544937E-08
(PID.TID 0000.0001) %MON trcstat_ptracer35_max        =   5.3541276090445E-05
(PID.TID 0000.0001) %MON trcstat_ptracer35_min        =  -2.5974967075322E-17
(PID.TID 0000.0001) %MON trcstat_ptracer35_mean       =   1.0808917583771E-07
(PID.TID 0000.0001) %MON trcstat_ptracer35_sd         =   1.6879880408815E-06
(PID.TID 0000.0001) %MON trcstat_ptracer35_del2       =   4.6360244627084E-08
(PID.TID 0000.0001) %MON trcstat_ptracer36_max        =   5.6037410115426E-05
(PID.TID 0000.0001) %MON trcstat_ptracer36_min        =  -5.8860784472533E-19
(PID.TID 0000.0001) %MON trcstat_ptracer36_mean       =   1.2513272747762E-07
(PID.TID 0000.0001) %MON trcstat_ptracer36_sd         =   1.8060063355813E-06
(PID.TID 0000.0001) %MON trcstat_ptracer36_del2       =   4.5352617091947E-08
(PID.TID 0000.0001) %MON trcstat_ptracer37_max        =   5.7821299051513E-05
(PID.TID 0000.0001) %MON trcstat_ptracer37_min        =  -3.8812706627301E-36
(PID.TID 0000.0001) %MON trcstat_ptracer37_mean       =   1.3100973820617E-07
(PID.TID 0000.0001) %MON trcstat_ptracer37_sd         =   1.8529827821856E-06
(PID.TID 0000.0001) %MON trcstat_ptracer37_del2       =   4.5409873496910E-08
(PID.TID 0000.0001) %MON trcstat_ptracer38_max        =   7.0996359767522E-05
(PID.TID 0000.0001) %MON trcstat_ptracer38_min        =   9.8830152904891E-51
(PID.TID 0000.0001) %MON trcstat_ptracer38_mean       =   1.7626793464724E-07
(PID.TID 0000.0001) %MON trcstat_ptracer38_sd         =   2.2685389926557E-06
(PID.TID 0000.0001) %MON trcstat_ptracer38_del2       =   4.3427221395246E-08
(PID.TID 0000.0001) %MON trcstat_ptracer39_max        =   2.8142342335605E-03
(PID.TID 0000.0001) %MON trcstat_ptracer39_min        =   7.4217719154588E-33
(PID.TID 0000.0001) %MON trcstat_ptracer39_mean       =   1.8605292448830E-05
(PID.TID 0000.0001) %MON trcstat_ptracer39_sd         =   1.3471123025371E-04
(PID.TID 0000.0001) %MON trcstat_ptracer39_del2       =   1.0050649131445E-06
(PID.TID 0000.0001) %MON trcstat_ptracer40_max        =   5.6037410115457E-05
(PID.TID 0000.0001) %MON trcstat_ptracer40_min        =  -7.0886205306079E-19
(PID.TID 0000.0001) %MON trcstat_ptracer40_mean       =   1.2513272580035E-07
(PID.TID 0000.0001) %MON trcstat_ptracer40_sd         =   1.8060063357059E-06
(PID.TID 0000.0001) %MON trcstat_ptracer40_del2       =   4.5352617091757E-08
(PID.TID 0000.0001) %MON trcstat_ptracer41_max        =   5.6148357198375E-05
(PID.TID 0000.0001) %MON trcstat_ptracer41_min        =  -4.8650340804781E-18
(PID.TID 0000.0001) %MON trcstat_ptracer41_mean       =   1.2551338595890E-07
(PID.TID 0000.0001) %MON trcstat_ptracer41_sd         =   1.8099570937121E-06
(PID.TID 0000.0001) %MON trcstat_ptracer41_del2       =   4.5303617822255E-08
(PID.TID 0000.0001) %MON trcstat_ptracer42_max        =   5.3534590293791E-05
(PID.TID 0000.0001) %MON trcstat_ptracer42_min        =   7.4205045532703E-17
(PID.TID 0000.0001) %MON trcstat_ptracer42_mean       =   1.0857717960384E-07
(PID.TID 0000.0001) %MON trcstat_ptracer42_sd         =   1.6823757549680E-06
(PID.TID 0000.0001) %MON trcstat_ptracer42_del2       =   4.6488300623224E-08
(PID.TID 0000.0001) %MON trcstat_ptracer43_max        =   1.0361271185754E-03
(PID.TID 0000.0001) %MON trcstat_ptracer43_min        =   5.4093799284401E-14
(PID.TID 0000.0001) %MON trcstat_ptracer43_mean       =   2.2948356795698E-05
(PID.TID 0000.0001) %MON trcstat_ptracer43_sd         =   8.2340987556016E-05
(PID.TID 0000.0001) %MON trcstat_ptracer43_del2       =   6.4216362439686E-07
(PID.TID 0000.0001) %MON trcstat_ptracer44_max        =   5.6037410764861E-05
(PID.TID 0000.0001) %MON trcstat_ptracer44_min        =  -1.3558520158725E-31
(PID.TID 0000.0001) %MON trcstat_ptracer44_mean       =   1.2515175711827E-07
(PID.TID 0000.0001) %MON trcstat_ptracer44_sd         =   1.8060050238350E-06
(PID.TID 0000.0001) %MON trcstat_ptracer44_del2       =   4.5352617849838E-08
(PID.TID 0000.0001) %MON trcstat_ptracer45_max        =   1.0463182339014E-04
(PID.TID 0000.0001) %MON trcstat_ptracer45_min        =   1.4103338058305E-50
(PID.TID 0000.0001) %MON trcstat_ptracer45_mean       =   3.7055900857362E-07
(PID.TID 0000.0001) %MON trcstat_ptracer45_sd         =   3.9318679730124E-06
(PID.TID 0000.0001) %MON trcstat_ptracer45_del2       =   4.5950054528305E-08
(PID.TID 0000.0001) %MON trcstat_ptracer46_max        =   5.5015104059209E-05
(PID.TID 0000.0001) %MON trcstat_ptracer46_min        =  -6.1876890780933E-21
(PID.TID 0000.0001) %MON trcstat_ptracer46_mean       =   1.1771011988078E-07
(PID.TID 0000.0001) %MON trcstat_ptracer46_sd         =   1.7826275701943E-06
(PID.TID 0000.0001) %MON trcstat_ptracer46_del2       =   4.5522533871604E-08
(PID.TID 0000.0001) %MON trcstat_ptracer47_max        =   5.6087155506760E-05
(PID.TID 0000.0001) %MON trcstat_ptracer47_min        =  -5.1787947410108E-19
(PID.TID 0000.0001) %MON trcstat_ptracer47_mean       =   1.2530383647282E-07
(PID.TID 0000.0001) %MON trcstat_ptracer47_sd         =   1.8078909463561E-06
(PID.TID 0000.0001) %MON trcstat_ptracer47_del2       =   4.5344793805449E-08
(PID.TID 0000.0001) %MON trcstat_ptracer48_max        =   5.6087155510426E-05
(PID.TID 0000.0001) %MON trcstat_ptracer48_min        =  -7.7571438764986E-35
(PID.TID 0000.0001) %MON trcstat_ptracer48_mean       =   1.2530428112055E-07
(PID.TID 0000.0001) %MON trcstat_ptracer48_sd         =   1.8078909150077E-06
(PID.TID 0000.0001) %MON trcstat_ptracer48_del2       =   4.5344793829446E-08
(PID.TID 0000.0001) %MON trcstat_ptracer49_max        =   5.6087742070158E-05
(PID.TID 0000.0001) %MON trcstat_ptracer49_min        =   7.8258998667219E-51
(PID.TID 0000.0001) %MON trcstat_ptracer49_mean       =   1.3874090407821E-07
(PID.TID 0000.0001) %MON trcstat_ptracer49_sd         =   1.8076781148021E-06
(PID.TID 0000.0001) %MON trcstat_ptracer49_del2       =   4.5347323654868E-08
(PID.TID 0000.0001) %MON trcstat_ptracer50_max        =   5.6720238436493E-05
(PID.TID 0000.0001) %MON trcstat_ptracer50_min        =   9.6059451247182E-51
(PID.TID 0000.0001) %MON trcstat_ptracer50_mean       =   1.6508027229737E-07
(PID.TID 0000.0001) %MON trcstat_ptracer50_sd         =   2.2673327205030E-06
(PID.TID 0000.0001) %MON trcstat_ptracer50_del2       =   4.1097789517385E-08
(PID.TID 0000.0001) %MON trcstat_ptracer51_max        =   5.6224544646154E-05
(PID.TID 0000.0001) %MON trcstat_ptracer51_min        =   1.0000000772558E-50
(PID.TID 0000.0001) %MON trcstat_ptracer51_mean       =   1.4121547514707E-07
(PID.TID 0000.0001) %MON trcstat_ptracer51_sd         =   1.8209335678802E-06
(PID.TID 0000.0001) %MON trcstat_ptracer51_del2       =   4.5235460392423E-08
(PID.TID 0000.0001) %MON trcstat_ptracer52_max        =   5.7956165582760E-05
(PID.TID 0000.0001) %MON trcstat_ptracer52_min        =   4.5034389886402E-50
(PID.TID 0000.0001) %MON trcstat_ptracer52_mean       =   1.4738599893603E-07
(PID.TID 0000.0001) %MON trcstat_ptracer52_sd         =   2.1557157433189E-06
(PID.TID 0000.0001) %MON trcstat_ptracer52_del2       =   4.1883976613646E-08
(PID.TID 0000.0001) %MON trcstat_ptracer53_max        =   5.2629768352892E-05
(PID.TID 0000.0001) %MON trcstat_ptracer53_min        =  -2.5745114477480E-17
(PID.TID 0000.0001) %MON trcstat_ptracer53_mean       =   1.0685394515731E-07
(PID.TID 0000.0001) %MON trcstat_ptracer53_sd         =   1.6677108518647E-06
(PID.TID 0000.0001) %MON trcstat_ptracer53_del2       =   4.6295111113810E-08
(PID.TID 0000.0001) %MON trcstat_ptracer54_max        =   5.6087155507716E-05
(PID.TID 0000.0001) %MON trcstat_ptracer54_min        =  -4.2532941173473E-18
(PID.TID 0000.0001) %MON trcstat_ptracer54_mean       =   1.2530381745315E-07
(PID.TID 0000.0001) %MON trcstat_ptracer54_sd         =   1.8078909477967E-06
(PID.TID 0000.0001) %MON trcstat_ptracer54_del2       =   4.5344793803030E-08
(PID.TID 0000.0001) %MON trcstat_ptracer55_max        =   5.2629768352723E-05
(PID.TID 0000.0001) %MON trcstat_ptracer55_min        =  -2.1330221300392E-23
(PID.TID 0000.0001) %MON trcstat_ptracer55_mean       =   1.0685394547217E-07
(PID.TID 0000.0001) %MON trcstat_ptracer55_sd         =   1.6677108518425E-06
(PID.TID 0000.0001) %MON trcstat_ptracer55_del2       =   4.6295111113811E-08
(PID.TID 0000.0001) %MON trcstat_ptracer56_max        =   2.9241916362080E-02
(PID.TID 0000.0001) %MON trcstat_ptracer56_min        =   4.4611493482162E-41
(PID.TID 0000.0001) %MON trcstat_ptracer56_mean       =   3.3156149733187E-04
(PID.TID 0000.0001) %MON trcstat_ptracer56_sd         =   1.8407105836514E-03
(PID.TID 0000.0001) %MON trcstat_ptracer56_del2       =   9.4127733039101E-06
(PID.TID 0000.0001) %MON trcstat_ptracer57_max        =   5.3038676079050E-04
(PID.TID 0000.0001) %MON trcstat_ptracer57_min        =   1.6274201685496E-44
(PID.TID 0000.0001) %MON trcstat_ptracer57_mean       =   9.6182327657657E-07
(PID.TID 0000.0001) %MON trcstat_ptracer57_sd         =   9.5852212010203E-06
(PID.TID 0000.0001) %MON trcstat_ptracer57_del2       =   8.9034010642175E-08
(PID.TID 0000.0001) %MON trcstat_ptracer58_max        =   1.0887089241526E-04
(PID.TID 0000.0001) %MON trcstat_ptracer58_min        =   9.9336326328652E-34
(PID.TID 0000.0001) %MON trcstat_ptracer58_mean       =   2.2150414385904E-07
(PID.TID 0000.0001) %MON trcstat_ptracer58_sd         =   3.3491418125047E-06
(PID.TID 0000.0001) %MON trcstat_ptracer58_del2       =   4.4559959765427E-08
(PID.TID 0000.0001) %MON trcstat_ptracer59_max        =   7.8152518372847E-05
(PID.TID 0000.0001) %MON trcstat_ptracer59_min        =   9.7961194156332E-51
(PID.TID 0000.0001) %MON trcstat_ptracer59_mean       =   2.0561247378946E-07
(PID.TID 0000.0001) %MON trcstat_ptracer59_sd         =   2.5731500973432E-06
(PID.TID 0000.0001) %MON trcstat_ptracer59_del2       =   4.1628054154526E-08
(PID.TID 0000.0001) %MON trcstat_ptracer60_max        =   7.6981791131952E-05
(PID.TID 0000.0001) %MON trcstat_ptracer60_min        =  -6.1992234955827E-32
(PID.TID 0000.0001) %MON trcstat_ptracer60_mean       =   2.0735131023162E-07
(PID.TID 0000.0001) %MON trcstat_ptracer60_sd         =   2.9452505440312E-06
(PID.TID 0000.0001) %MON trcstat_ptracer60_del2       =   3.9613282473128E-08
(PID.TID 0000.0001) %MON trcstat_ptracer61_max        =   6.9545779720091E-05
(PID.TID 0000.0001) %MON trcstat_ptracer61_min        =   6.6457807856832E-30
(PID.TID 0000.0001) %MON trcstat_ptracer61_mean       =   1.5332443571384E-07
(PID.TID 0000.0001) %MON trcstat_ptracer61_sd         =   2.4054226764959E-06
(PID.TID 0000.0001) %MON trcstat_ptracer61_del2       =   4.1334415158592E-08
(PID.TID 0000.0001) %MON trcstat_ptracer62_max        =   6.9836673559459E-05
(PID.TID 0000.0001) %MON trcstat_ptracer62_min        =   9.9279659787664E-51
(PID.TID 0000.0001) %MON trcstat_ptracer62_mean       =   1.7255562094369E-07
(PID.TID 0000.0001) %MON trcstat_ptracer62_sd         =   2.2276820724302E-06
(PID.TID 0000.0001) %MON trcstat_ptracer62_del2       =   4.3915623247651E-08
(PID.TID 0000.0001) %MON trcstat_ptracer63_max        =   6.7735876753301E-05
(PID.TID 0000.0001) %MON trcstat_ptracer63_min        =   9.5789690989123E-51
(PID.TID 0000.0001) %MON trcstat_ptracer63_mean       =   2.4330078774884E-07
(PID.TID 0000.0001) %MON trcstat_ptracer63_sd         =   2.9700748512755E-06
(PID.TID 0000.0001) %MON trcstat_ptracer63_del2       =   3.8587310774866E-08
(PID.TID 0000.0001) %MON trcstat_ptracer64_max        =   4.6122660522281E-04
(PID.TID 0000.0001) %MON trcstat_ptracer64_min        =  -1.7896198135753E-24
(PID.TID 0000.0001) %MON trcstat_ptracer64_mean       =   1.8207958525567E-06
(PID.TID 0000.0001) %MON trcstat_ptracer64_sd         =   1.7054500106881E-05
(PID.TID 0000.0001) %MON trcstat_ptracer64_del2       =   2.2662098607909E-07
(PID.TID 0000.0001) %MON trcstat_ptracer65_max        =   5.4277525167971E-05
(PID.TID 0000.0001) %MON trcstat_ptracer65_min        =   4.1035135159590E-18
(PID.TID 0000.0001) %MON trcstat_ptracer65_mean       =   1.1651804694523E-07
(PID.TID 0000.0001) %MON trcstat_ptracer65_sd         =   1.7613684156909E-06
(PID.TID 0000.0001) %MON trcstat_ptracer65_del2       =   4.5449897847287E-08
(PID.TID 0000.0001) %MON trcstat_ptracer66_max        =   5.6148357197398E-05
(PID.TID 0000.0001) %MON trcstat_ptracer66_min        =  -5.1234188284283E-19
(PID.TID 0000.0001) %MON trcstat_ptracer66_mean       =   1.2551341150229E-07
(PID.TID 0000.0001) %MON trcstat_ptracer66_sd         =   1.8099570917867E-06
(PID.TID 0000.0001) %MON trcstat_ptracer66_del2       =   4.5303617825599E-08
(PID.TID 0000.0001) %MON trcstat_ptracer67_max        =   5.2629768352467E-05
(PID.TID 0000.0001) %MON trcstat_ptracer67_min        =  -2.6389236170914E-17
(PID.TID 0000.0001) %MON trcstat_ptracer67_mean       =   1.0686580902475E-07
(PID.TID 0000.0001) %MON trcstat_ptracer67_sd         =   1.6678954373577E-06
(PID.TID 0000.0001) %MON trcstat_ptracer67_del2       =   4.6290500658105E-08
(PID.TID 0000.0001) %MON trcstat_ptracer68_max        =   5.3528872356340E-05
(PID.TID 0000.0001) %MON trcstat_ptracer68_min        =  -6.3904557683864E-25
(PID.TID 0000.0001) %MON trcstat_ptracer68_mean       =   1.0878352839080E-07
(PID.TID 0000.0001) %MON trcstat_ptracer68_sd         =   1.6989737240577E-06
(PID.TID 0000.0001) %MON trcstat_ptracer68_del2       =   4.6263661003304E-08
(PID.TID 0000.0001) %MON trcstat_ptracer69_max        =   5.6148357196328E-05
(PID.TID 0000.0001) %MON trcstat_ptracer69_min        =  -5.8636483185960E-19
(PID.TID 0000.0001) %MON trcstat_ptracer69_mean       =   1.2551339076882E-07
(PID.TID 0000.0001) %MON trcstat_ptracer69_sd         =   1.8099570932011E-06
(PID.TID 0000.0001) %MON trcstat_ptracer69_del2       =   4.5303617823768E-08
(PID.TID 0000.0001) %MON trcstat_ptracer70_max        =   5.6087155507791E-05
(PID.TID 0000.0001) %MON trcstat_ptracer70_min        =  -2.6725416286017E-18
(PID.TID 0000.0001) %MON trcstat_ptracer70_mean       =   1.2530381746943E-07
(PID.TID 0000.0001) %MON trcstat_ptracer70_sd         =   1.8078909478016E-06
(PID.TID 0000.0001) %MON trcstat_ptracer70_del2       =   4.5344793803007E-08
(PID.TID 0000.0001) %MON trcstat_ptracer71_max        =   1.1526226964364E-04
(PID.TID 0000.0001) %MON trcstat_ptracer71_min        =   7.8270747633119E-31
(PID.TID 0000.0001) %MON trcstat_ptracer71_mean       =   2.5180608118242E-07
(PID.TID 0000.0001) %MON trcstat_ptracer71_sd         =   3.5273196119739E-06
(PID.TID 0000.0001) %MON trcstat_ptracer71_del2       =   4.6191010460923E-08
(PID.TID 0000.0001) %MON trcstat_ptracer72_max        =   5.6311031856533E-05
(PID.TID 0000.0001) %MON trcstat_ptracer72_min        =   9.9844290557964E-51
(PID.TID 0000.0001) %MON trcstat_ptracer72_mean       =   1.2566479410169E-07
(PID.TID 0000.0001) %MON trcstat_ptracer72_sd         =   1.8118458833803E-06
(PID.TID 0000.0001) %MON trcstat_ptracer72_del2       =   4.5319582289986E-08
(PID.TID 0000.0001) %MON trcstat_ptracer73_max        =   1.9370434047038E-02
(PID.TID 0000.0001) %MON trcstat_ptracer73_min        =  -3.8574393584016E-19
(PID.TID 0000.0001) %MON trcstat_ptracer73_mean       =   6.2742225316528E-04
(PID.TID 0000.0001) %MON trcstat_ptracer73_sd         =   1.6863223709980E-03
(PID.TID 0000.0001) %MON trcstat_ptracer73_del2       =   1.0112974438676E-05
(PID.TID 0000.0001) %MON trcstat_ptracer74_max        =   5.4277520779009E-05
(PID.TID 0000.0001) %MON trcstat_ptracer74_min        =  -1.3361676678101E-18
(PID.TID 0000.0001) %MON trcstat_ptracer74_mean       =   1.1651081090131E-07
(PID.TID 0000.0001) %MON trcstat_ptracer74_sd         =   1.7613685428326E-06
(PID.TID 0000.0001) %MON trcstat_ptracer74_del2       =   4.5449899801775E-08
(PID.TID 0000.0001) %MON trcstat_ptracer75_max        =   5.4288199736852E-05
(PID.TID 0000.0001) %MON trcstat_ptracer75_min        =   4.9817756963368E-37
(PID.TID 0000.0001) %MON trcstat_ptracer75_mean       =   1.3890773571182E-07
(PID.TID 0000.0001) %MON trcstat_ptracer75_sd         =   1.8259320477098E-06
(PID.TID 0000.0001) %MON trcstat_ptracer75_del2       =   4.4601566125549E-08
(PID.TID 0000.0001) %MON trcstat_ptracer76_max        =   5.2572432403706E-05
(PID.TID 0000.0001) %MON trcstat_ptracer76_min        =  -2.4502328619840E-19
(PID.TID 0000.0001) %MON trcstat_ptracer76_mean       =   1.0669751699360E-07
(PID.TID 0000.0001) %MON trcstat_ptracer76_sd         =   1.6659386189586E-06
(PID.TID 0000.0001) %MON trcstat_ptracer76_del2       =   4.6334866423401E-08
(PID.TID 0000.0001) %MON trcstat_ptracer77_max        =   5.2525822910110E-05
(PID.TID 0000.0001) %MON trcstat_ptracer77_min        =   6.7849408728000E-29
(PID.TID 0000.0001) %MON trcstat_ptracer77_mean       =   1.0656427291478E-07
(PID.TID 0000.0001) %MON trcstat_ptracer77_sd         =   1.6642580593629E-06
(PID.TID 0000.0001) %MON trcstat_ptracer77_del2       =   4.6342517228588E-08
(PID.TID 0000.0001) %MON trcstat_ptracer78_max        =   5.2629767689056E-05
(PID.TID 0000.0001) %MON trcstat_ptracer78_min        =  -1.3666093965658E-17
(PID.TID 0000.0001) %MON trcstat_ptracer78_mean       =   1.0696717494902E-07
(PID.TID 0000.0001) %MON trcstat_ptracer78_sd         =   1.6698078050658E-06
(PID.TID 0000.0001) %MON trcstat_ptracer78_del2       =   4.6283755490040E-08
(PID.TID 0000.0001) %MON trcstat_ptracer79_max        =   9.5228294903932E-02
(PID.TID 0000.0001) %MON trcstat_ptracer79_min        =   3.2483696869323E-15
(PID.TID 0000.0001) %MON trcstat_ptracer79_mean       =   6.7508043644030E-03
(PID.TID 0000.0001) %MON trcstat_ptracer79_sd         =   1.0333883818018E-02
(PID.TID 0000.0001) %MON trcstat_ptracer79_del2       =   6.2199605157814E-05
(PID.TID 0000.0001) %MON trcstat_ptracer80_max        =   5.7000977991905E-05
(PID.TID 0000.0001) %MON trcstat_ptracer80_min        =  -1.4807757557585E-23
(PID.TID 0000.0001) %MON trcstat_ptracer80_mean       =   1.2677263947679E-07
(PID.TID 0000.0001) %MON trcstat_ptracer80_sd         =   1.8339527533191E-06
(PID.TID 0000.0001) %MON trcstat_ptracer80_del2       =   4.5406349103028E-08
(PID.TID 0000.0001) %MON trcstat_ptracer81_max        =   5.6281595252590E-05
(PID.TID 0000.0001) %MON trcstat_ptracer81_min        =   8.7273866529652E-51
(PID.TID 0000.0001) %MON trcstat_ptracer81_mean       =   1.4171425240766E-07
(PID.TID 0000.0001) %MON trcstat_ptracer81_sd         =   2.0186943415701E-06
(PID.TID 0000.0001) %MON trcstat_ptracer81_del2       =   4.2991071968794E-08
(PID.TID 0000.0001) %MON trcstat_ptracer82_max        =   1.4726721859464E-04
(PID.TID 0000.0001) %MON trcstat_ptracer82_min        =   3.2181561544770E-51
(PID.TID 0000.0001) %MON trcstat_ptracer82_mean       =   5.2154458162999E-07
(PID.TID 0000.0001) %MON trcstat_ptracer82_sd         =   5.2453538863799E-06
(PID.TID 0000.0001) %MON trcstat_ptracer82_del2       =   4.5845079147919E-08
(PID.TID 0000.0001) %MON trcstat_ptracer83_max        =   2.0946190566286E-02
(PID.TID 0000.0001) %MON trcstat_ptracer83_min        =   2.1702270165420E-35
(PID.TID 0000.0001) %MON trcstat_ptracer83_mean       =   1.3243553991306E-04
(PID.TID 0000.0001) %MON trcstat_ptracer83_sd         =   8.2807336086785E-04
(PID.TID 0000.0001) %MON trcstat_ptracer83_del2       =   4.8245636733625E-06
(PID.TID 0000.0001) %MON trcstat_ptracer84_max        =   1.9478682933447E-04
(PID.TID 0000.0001) %MON trcstat_ptracer84_min        =  -3.5834620388089E-28
(PID.TID 0000.0001) %MON trcstat_ptracer84_mean       =   5.4323204597708E-07
(PID.TID 0000.0001) %MON trcstat_ptracer84_sd         =   6.6618311949764E-06
(PID.TID 0000.0001) %MON trcstat_ptracer84_del2       =   7.3274215154208E-08
(PID.TID 0000.0001) %MON trcstat_ptracer85_max        =   5.7717286877961E-05
(PID.TID 0000.0001) %MON trcstat_ptracer85_min        =   8.4290586946292E-51
(PID.TID 0000.0001) %MON trcstat_ptracer85_mean       =   1.2776390676952E-07
(PID.TID 0000.0001) %MON trcstat_ptracer85_sd         =   1.8423394513318E-06
(PID.TID 0000.0001) %MON trcstat_ptracer85_del2       =   4.5526750247296E-08
(PID.TID 0000.0001) %MON trcstat_ptracer86_max        =   5.2629768352930E-05
(PID.TID 0000.0001) %MON trcstat_ptracer86_min        =  -2.5738600568948E-17
(PID.TID 0000.0001) %MON trcstat_ptracer86_mean       =   1.0685394515749E-07
(PID.TID 0000.0001) %MON trcstat_ptracer86_sd         =   1.6677108518669E-06
(PID.TID 0000.0001) %MON trcstat_ptracer86_del2       =   4.6295111113790E-08
(PID.TID 0000.0001) %MON trcstat_ptracer87_max        =   5.6232924085433E-05
(PID.TID 0000.0001) %MON trcstat_ptracer87_min        =  -1.8778578204708E-18
(PID.TID 0000.0001) %MON trcstat_ptracer87_mean       =   1.2621311423300E-07
(PID.TID 0000.0001) %MON trcstat_ptracer87_sd         =   1.8210308321747E-06
(PID.TID 0000.0001) %MON trcstat_ptracer87_del2       =   4.5227568586885E-08
(PID.TID 0000.0001) %MON trcstat_ptracer88_max        =   5.7058805245353E-05
(PID.TID 0000.0001) %MON trcstat_ptracer88_min        =  -1.1355362096727E-18
(PID.TID 0000.0001) %MON trcstat_ptracer88_mean       =   1.2755247141141E-07
(PID.TID 0000.0001) %MON trcstat_ptracer88_sd         =   1.8415040848253E-06
(PID.TID 0000.0001) %MON trcstat_ptracer88_del2       =   4.5259478974617E-08
(PID.TID 0000.0001) %MON trcstat_ptracer89_max        =   6.2559779531268E-02
(PID.TID 0000.0001) %MON trcstat_ptracer89_min        =   4.6262793740866E-30
(PID.TID 0000.0001) %MON trcstat_ptracer89_mean       =   3.6656068706568E-03
(PID.TID 0000.0001) %MON trcstat_ptracer89_sd         =   7.9447612220822E-03
(PID.TID 0000.0001) %MON trcstat_ptracer89_del2       =   2.9969072630231E-05
(PID.TID 0000.0001) %MON trcstat_ptracer90_max        =   5.5737016844757E-05
(PID.TID 0000.0001) %MON trcstat_ptracer90_min        =  -1.3589440172057E-18
(PID.TID 0000.0001) %MON trcstat_ptracer90_mean       =   1.1889331924154E-07
(PID.TID 0000.0001) %MON trcstat_ptracer90_sd         =   1.8005886976562E-06
(PID.TID 0000.0001) %MON trcstat_ptracer90_del2       =   4.5571883211609E-08
(PID.TID 0000.0001) %MON trcstat_ptracer91_max        =   2.4427049542840E-04
(PID.TID 0000.0001) %MON trcstat_ptracer91_min        =   2.3684977024244E-24
(PID.TID 0000.0001) %MON trcstat_ptracer91_mean       =   5.6076942876902E-07
(PID.TID 0000.0001) %MON trcstat_ptracer91_sd         =   7.2279277604351E-06
(PID.TID 0000.0001) %MON trcstat_ptracer91_del2       =   9.9697358088028E-08
(PID.TID 0000.0001) %MON trcstat_ptracer92_max        =   3.2265996060035E-04
(PID.TID 0000.0001) %MON trcstat_ptracer92_min        =   8.9658366245980E-43
(PID.TID 0000.0001) %MON trcstat_ptracer92_mean       =   1.6413935824950E-06
(PID.TID 0000.0001) %MON trcstat_ptracer92_sd         =   1.3553400603946E-05
(PID.TID 0000.0001) %MON trcstat_ptracer92_del2       =   1.0065043615038E-07
(PID.TID 0000.0001) %MON trcstat_ptracer93_max        =   7.3422964284586E-03
(PID.TID 0000.0001) %MON trcstat_ptracer93_min        =   3.4057815947301E-33
(PID.TID 0000.0001) %MON trcstat_ptracer93_mean       =   1.0724761948681E-04
(PID.TID 0000.0001) %MON trcstat_ptracer93_sd         =   4.2464745698933E-04
(PID.TID 0000.0001) %MON trcstat_ptracer93_del2       =   3.3801942646775E-06
(PID.TID 0000.0001) %MON trcstat_ptracer94_max        =   5.2629774637197E-05
(PID.TID 0000.0001) %MON trcstat_ptracer94_min        =   1.2412675900186E-28
(PID.TID 0000.0001) %MON trcstat_ptracer94_mean       =   1.0685512327470E-07
(PID.TID 0000.0001) %MON trcstat_ptracer94_sd         =   1.6677111909447E-06
(PID.TID 0000.0001) %MON trcstat_ptracer94_del2       =   4.6295109025523E-08
(PID.TID 0000.0001) %MON trcstat_ptracer95_max        =   5.6037410116614E-05
(PID.TID 0000.0001) %MON trcstat_ptracer95_min        =  -4.2349792754670E-18
(PID.TID 0000.0001) %MON trcstat_ptracer95_mean       =   1.2513272492312E-07
(PID.TID 0000.0001) %MON trcstat_ptracer95_sd         =   1.8060063358593E-06
(PID.TID 0000.0001) %MON trcstat_ptracer95_del2       =   4.5352617091259E-08
(PID.TID 0000.0001) %MON trcstat_ptracer96_max        =   5.2629768352153E-05
(PID.TID 0000.0001) %MON trcstat_ptracer96_min        =  -2.6858968266048E-17
(PID.TID 0000.0001) %MON trcstat_ptracer96_mean       =   1.0685394515517E-07
(PID.TID 0000.0001) %MON trcstat_ptracer96_sd         =   1.6677108518340E-06
(PID.TID 0000.0001) %MON trcstat_ptracer96_del2       =   4.6295111114105E-08
(PID.TID 0000.0001) %MON trcstat_ptracer97_max        =   8.0753649048310E-04
(PID.TID 0000.0001) %MON trcstat_ptracer97_min        =   1.0000000000689E-50
(PID.TID 0000.0001) %MON trcstat_ptracer97_mean       =   1.5711259201851E-06
(PID.TID 0000.0001) %MON trcstat_ptracer97_sd         =   1.5779895942107E-05
(PID.TID 0000.0001) %MON trcstat_ptracer97_del2       =   1.3214091067481E-07
(PID.TID 0000.0001) %MON trcstat_ptracer98_max        =   7.3478133099841E-05
(PID.TID 0000.0001) %MON trcstat_ptracer98_min        =  -1.0142682988027E-23
(PID.TID 0000.0001) %MON trcstat_ptracer98_mean       =   2.0598168938217E-07
(PID.TID 0000.0001) %MON trcstat_ptracer98_sd         =   2.8736210562559E-06
(PID.TID 0000.0001) %MON trcstat_ptracer98_del2       =   3.9386606846393E-08
(PID.TID 0000.0001) %MON trcstat_ptracer99_max        =   5.4170300117050E-05
(PID.TID 0000.0001) %MON trcstat_ptracer99_min        =  -9.8814200058399E-22
(PID.TID 0000.0001) %MON trcstat_ptracer99_mean       =   1.1618249499193E-07
(PID.TID 0000.0001) %MON trcstat_ptracer99_sd         =   1.7576927371543E-06
(PID.TID 0000.0001) %MON trcstat_ptracer99_del2       =   4.5499097973682E-08
(PID.TID 0000.0001) // =======================================================
(PID.TID 0000.0001) // End MONITOR ptracers field statistics
(PID.TID 0000.0001) // =======================================================
 Compute Stats, Diag. #   1605  SIqsw     vol(   0 ): 4.767E+11  Parms: SM      U1      
 Compute Stats, Diag. #     86  oceQsw    vol(   0 ): 4.767E+11  Parms: SM      U1      
 Compute Stats, Diag. #   1497  PAR       vol(   0 ): 2.820E+13  Parms: SM P    MR      
 Compute Stats, Diag. #    176  EXFswnet  vol(   0 ): 4.767E+11  Parms: SM      U1      
 Compute Stats, Diag. #    178  EXFswdn   vol(   0 ): 4.767E+11  Parms: SM      U1      
 Compute Stats, Diag. #     26  THETA     vol(   0 ): 2.820E+13  Parms: SMR     MR      
 Compute Stats, Diag. #     29  SALTanom  vol(   0 ): 2.820E+13  Parms: SMR     MR      
 Compute Stats, Diag. #   1498  PP        vol(   0 ): 2.820E+13  Parms: SM P    MR      
 Compute Stats, Diag. #   1223  TRAC79    vol(   0 ): 2.820E+13  Parms: SMR     MR      
 Compute Stats, Diag. #     23  ETAN      vol(   0 ): 4.767E+11  Parms: SM      M1      
 Compute Stats, Diag. #    235  TRAC03    vol(   0 ): 2.820E+13  Parms: SMR     MR      
 Compute Stats, Diag. #   1579  Diver1    vol(   0 ): 2.820E+13  Parms: SM P    MR      
 Compute Stats, Diag. #   1580  Diver2    vol(   0 ): 2.820E+13  Parms: SM P    MR      
 Compute Stats, Diag. #   1581  Diver3    vol(   0 ): 2.820E+13  Parms: SM P    MR      
 Compute Stats, Diag. #   1582  Diver4    vol(   0 ): 2.820E+13  Parms: SM P    MR      
 Compute Stats, Diag. #   1583  Shannon   vol(   0 ): 2.820E+13  Parms: SM P    MR      
 Compute Stats, Diag. #   1584  Simpson   vol(   0 ): 2.820E+13  Parms: SM P    MR      
(PID.TID 0000.0001) DIAGSTATS_CLOSE_IO: close file: stat_SIqsw.0000188388.txt , unit=     9
(PID.TID 0000.0001) DIAGSTATS_CLOSE_IO: close file: stat_oceQsw.0000188388.txt , unit=    10
(PID.TID 0000.0001) DIAGSTATS_CLOSE_IO: close file: stat_PAR.0000188388.txt , unit=    16
(PID.TID 0000.0001) DIAGSTATS_CLOSE_IO: close file: stat_EXFswnet.0000188388.txt , unit=    17
(PID.TID 0000.0001) DIAGSTATS_CLOSE_IO: close file: stat_EXFswdn.0000188388.txt , unit=    18
(PID.TID 0000.0001) DIAGSTATS_CLOSE_IO: close file: stat_THETA.0000188388.txt , unit=    19
(PID.TID 0000.0001) DIAGSTATS_CLOSE_IO: close file: stat_SALTanom.0000188388.txt , unit=    20
(PID.TID 0000.0001) DIAGSTATS_CLOSE_IO: close file: stat_PP.0000188388.txt , unit=    21
(PID.TID 0000.0001) DIAGSTATS_CLOSE_IO: close file: stat_Phy58.0000188388.txt , unit=    22
(PID.TID 0000.0001) DIAGSTATS_CLOSE_IO: close file: stat_ETAN.0000188388.txt , unit=    23
(PID.TID 0000.0001) DIAGSTATS_CLOSE_IO: close file: stat_FeT.0000188388.txt , unit=    24
(PID.TID 0000.0001) DIAGSTATS_CLOSE_IO: close file: stat_Diver1.0000188388.txt , unit=    25
(PID.TID 0000.0001) DIAGSTATS_CLOSE_IO: close file: stat_Diver2.0000188388.txt , unit=    26
(PID.TID 0000.0001) DIAGSTATS_CLOSE_IO: close file: stat_Diver3.0000188388.txt , unit=    27
(PID.TID 0000.0001) DIAGSTATS_CLOSE_IO: close file: stat_Diver4.0000188388.txt , unit=    28
(PID.TID 0000.0001) DIAGSTATS_CLOSE_IO: close file: stat_Shannon.0000188388.txt , unit=    29
(PID.TID 0000.0001) DIAGSTATS_CLOSE_IO: close file: stat_Simpson.0000188388.txt , unit=    30
(PID.TID 0000.0001) %CHECKPOINT    188392 ckptA
(PID.TID 0000.0001)   Seconds in section "ALL                    [THE_MODEL_MAIN]":
(PID.TID 0000.0001)           User time:   91.060000000000002
(PID.TID 0000.0001)         System time:   1.2700000000000000
(PID.TID 0000.0001)     Wall clock time:   92.858173131942749
(PID.TID 0000.0001)          No. starts:           1
(PID.TID 0000.0001)           No. stops:           1
(PID.TID 0000.0001)   Seconds in section "INITIALISE_FIXED       [THE_MODEL_MAIN]":
(PID.TID 0000.0001)           User time:  0.39000000000000001
(PID.TID 0000.0001)         System time:   2.9999999999999999E-002
(PID.TID 0000.0001)     Wall clock time:  0.42548990249633789
(PID.TID 0000.0001)          No. starts:           1
(PID.TID 0000.0001)           No. stops:           1
(PID.TID 0000.0001)   Seconds in section "THE_MAIN_LOOP          [THE_MODEL_MAIN]":
(PID.TID 0000.0001)           User time:   90.670000000000002
(PID.TID 0000.0001)         System time:   1.2400000000000000
(PID.TID 0000.0001)     Wall clock time:   92.432641983032227
(PID.TID 0000.0001)          No. starts:           1
(PID.TID 0000.0001)           No. stops:           1
(PID.TID 0000.0001)   Seconds in section "INITIALISE_VARIA    [THE_MAIN_LOOP]":
(PID.TID 0000.0001)           User time:   2.3500000000000001
(PID.TID 0000.0001)         System time:   1.0900000000000001
(PID.TID 0000.0001)     Wall clock time:   3.4761390686035156
(PID.TID 0000.0001)          No. starts:           1
(PID.TID 0000.0001)           No. stops:           1
(PID.TID 0000.0001)   Seconds in section "MAIN LOOP           [THE_MAIN_LOOP]":
(PID.TID 0000.0001)           User time:   88.320000000000007
(PID.TID 0000.0001)         System time:  0.14999999999999991
(PID.TID 0000.0001)     Wall clock time:   88.956470012664795
(PID.TID 0000.0001)          No. starts:           1
(PID.TID 0000.0001)           No. stops:           1
(PID.TID 0000.0001)   Seconds in section "MAIN_DO_LOOP        [THE_MAIN_LOOP]":
(PID.TID 0000.0001)           User time:   88.320000000000007
(PID.TID 0000.0001)         System time:  0.14999999999999991
(PID.TID 0000.0001)     Wall clock time:   88.956449031829834
(PID.TID 0000.0001)          No. starts:           1
(PID.TID 0000.0001)           No. stops:           1
(PID.TID 0000.0001)   Seconds in section "FORWARD_STEP        [MAIN_DO_LOOP]":
(PID.TID 0000.0001)           User time:   88.320000000000007
(PID.TID 0000.0001)         System time:  0.14999999999999991
(PID.TID 0000.0001)     Wall clock time:   88.956398248672485
(PID.TID 0000.0001)          No. starts:           4
(PID.TID 0000.0001)           No. stops:           4
(PID.TID 0000.0001)   Seconds in section "DO_STATEVARS_DIAGS  [FORWARD_STEP]":
(PID.TID 0000.0001)           User time:  0.61000000000001364
(PID.TID 0000.0001)         System time:   0.0000000000000000
(PID.TID 0000.0001)     Wall clock time:  0.61065578460693359
(PID.TID 0000.0001)          No. starts:          12
(PID.TID 0000.0001)           No. stops:          12
(PID.TID 0000.0001)   Seconds in section "LOAD_FIELDS_DRIVER  [FORWARD_STEP]":
(PID.TID 0000.0001)           User time:  0.19000000000001194
(PID.TID 0000.0001)         System time:   0.0000000000000000
(PID.TID 0000.0001)     Wall clock time:  0.18971490859985352
(PID.TID 0000.0001)          No. starts:           4
(PID.TID 0000.0001)           No. stops:           4
(PID.TID 0000.0001)   Seconds in section "EXF_GETFORCING     [LOAD_FLDS_DRIVER]":
(PID.TID 0000.0001)           User time:  0.17000000000001592
(PID.TID 0000.0001)         System time:   0.0000000000000000
(PID.TID 0000.0001)     Wall clock time:  0.17222094535827637
(PID.TID 0000.0001)          No. starts:           4
(PID.TID 0000.0001)           No. stops:           4
(PID.TID 0000.0001)   Seconds in section "EXTERNAL_FLDS_LOAD [LOAD_FLDS_DRIVER]":
(PID.TID 0000.0001)           User time:   0.0000000000000000
(PID.TID 0000.0001)         System time:   0.0000000000000000
(PID.TID 0000.0001)     Wall clock time:   4.5776367187500000E-005
(PID.TID 0000.0001)          No. starts:           4
(PID.TID 0000.0001)           No. stops:           4
(PID.TID 0000.0001)   Seconds in section "DO_ATMOSPHERIC_PHYS [FORWARD_STEP]":
(PID.TID 0000.0001)           User time:   0.0000000000000000
(PID.TID 0000.0001)         System time:   0.0000000000000000
(PID.TID 0000.0001)     Wall clock time:   4.4107437133789063E-005
(PID.TID 0000.0001)          No. starts:           4
(PID.TID 0000.0001)           No. stops:           4
(PID.TID 0000.0001)   Seconds in section "DO_OCEANIC_PHYS     [FORWARD_STEP]":
(PID.TID 0000.0001)           User time:   2.5099999999999767
(PID.TID 0000.0001)         System time:   1.0000000000000009E-002
(PID.TID 0000.0001)     Wall clock time:   2.5226819515228271
(PID.TID 0000.0001)          No. starts:           4
(PID.TID 0000.0001)           No. stops:           4
(PID.TID 0000.0001)   Seconds in section "SEAICE_MODEL    [DO_OCEANIC_PHYS]":
(PID.TID 0000.0001)           User time:  0.71000000000000796
(PID.TID 0000.0001)         System time:   0.0000000000000000
(PID.TID 0000.0001)     Wall clock time:  0.71867203712463379
(PID.TID 0000.0001)          No. starts:           4
(PID.TID 0000.0001)           No. stops:           4
(PID.TID 0000.0001)   Seconds in section "SEAICE_DYNSOLVER   [SEAICE_MODEL]":
(PID.TID 0000.0001)           User time:  0.53999999999999204
(PID.TID 0000.0001)         System time:   0.0000000000000000
(PID.TID 0000.0001)     Wall clock time:  0.55051398277282715
(PID.TID 0000.0001)          No. starts:           4
(PID.TID 0000.0001)           No. stops:           4
(PID.TID 0000.0001)   Seconds in section "KPP_CALC [DO_OCEANIC_PHYS]":
(PID.TID 0000.0001)           User time:   1.5299999999999727
(PID.TID 0000.0001)         System time:   0.0000000000000000
(PID.TID 0000.0001)     Wall clock time:   1.5221998691558838
(PID.TID 0000.0001)          No. starts:          16
(PID.TID 0000.0001)           No. stops:          16
(PID.TID 0000.0001)   Seconds in section "GCHEM_CALC_TENDENCY [FORWARD_STEP]":
(PID.TID 0000.0001)           User time:   0.0000000000000000
(PID.TID 0000.0001)         System time:   0.0000000000000000
(PID.TID 0000.0001)     Wall clock time:   4.1961669921875000E-005
(PID.TID 0000.0001)          No. starts:           4
(PID.TID 0000.0001)           No. stops:           4
(PID.TID 0000.0001)   Seconds in section "DYNAMICS            [FORWARD_STEP]":
(PID.TID 0000.0001)           User time:   1.5600000000000023
(PID.TID 0000.0001)         System time:   0.0000000000000000
(PID.TID 0000.0001)     Wall clock time:   1.5725381374359131
(PID.TID 0000.0001)          No. starts:           4
(PID.TID 0000.0001)           No. stops:           4
(PID.TID 0000.0001)   Seconds in section "UPDATE_SURF_DR      [FORWARD_STEP]":
(PID.TID 0000.0001)           User time:   9.9999999999909051E-003
(PID.TID 0000.0001)         System time:   0.0000000000000000
(PID.TID 0000.0001)     Wall clock time:   1.4024019241333008E-002
(PID.TID 0000.0001)          No. starts:           4
(PID.TID 0000.0001)           No. stops:           4
(PID.TID 0000.0001)   Seconds in section "SOLVE_FOR_PRESSURE  [FORWARD_STEP]":
(PID.TID 0000.0001)           User time:  0.11000000000001364
(PID.TID 0000.0001)         System time:   0.0000000000000000
(PID.TID 0000.0001)     Wall clock time:  0.10386109352111816
(PID.TID 0000.0001)          No. starts:           4
(PID.TID 0000.0001)           No. stops:           4
(PID.TID 0000.0001)   Seconds in section "MOM_CORRECTION_STEP [FORWARD_STEP]":
(PID.TID 0000.0001)           User time:   3.0000000000001137E-002
(PID.TID 0000.0001)         System time:   0.0000000000000000
(PID.TID 0000.0001)     Wall clock time:   3.6372900009155273E-002
(PID.TID 0000.0001)          No. starts:           4
(PID.TID 0000.0001)           No. stops:           4
(PID.TID 0000.0001)   Seconds in section "INTEGR_CONTINUITY   [FORWARD_STEP]":
(PID.TID 0000.0001)           User time:   7.9999999999998295E-002
(PID.TID 0000.0001)         System time:   0.0000000000000000
(PID.TID 0000.0001)     Wall clock time:   7.9500913619995117E-002
(PID.TID 0000.0001)          No. starts:           4
(PID.TID 0000.0001)           No. stops:           4
(PID.TID 0000.0001)   Seconds in section "BLOCKING_EXCHANGES  [FORWARD_STEP]":
(PID.TID 0000.0001)           User time:  0.57999999999998408
(PID.TID 0000.0001)         System time:   0.0000000000000000
(PID.TID 0000.0001)     Wall clock time:  0.58413386344909668
(PID.TID 0000.0001)          No. starts:           8
(PID.TID 0000.0001)           No. stops:           8
(PID.TID 0000.0001)   Seconds in section "THERMODYNAMICS      [FORWARD_STEP]":
(PID.TID 0000.0001)           User time:   64.719999999999999
(PID.TID 0000.0001)         System time:   0.0000000000000000
(PID.TID 0000.0001)     Wall clock time:   65.071156024932861
(PID.TID 0000.0001)          No. starts:           4
(PID.TID 0000.0001)           No. stops:           4
(PID.TID 0000.0001)   Seconds in section "TRC_CORRECTION_STEP [FORWARD_STEP]":
(PID.TID 0000.0001)           User time:  0.76000000000000512
(PID.TID 0000.0001)         System time:   0.0000000000000000
(PID.TID 0000.0001)     Wall clock time:  0.75437688827514648
(PID.TID 0000.0001)          No. starts:           4
(PID.TID 0000.0001)           No. stops:           4
(PID.TID 0000.0001)   Seconds in section "GCHEM_FORCING_SEP  [FORWARD_STEP]":
(PID.TID 0000.0001)           User time:   14.359999999999999
(PID.TID 0000.0001)         System time:   2.9999999999999805E-002
(PID.TID 0000.0001)     Wall clock time:   14.488900899887085
(PID.TID 0000.0001)          No. starts:           4
(PID.TID 0000.0001)           No. stops:           4
(PID.TID 0000.0001)   Seconds in section "MONITOR             [FORWARD_STEP]":
(PID.TID 0000.0001)           User time:  0.21999999999999886
(PID.TID 0000.0001)         System time:   0.0000000000000000
(PID.TID 0000.0001)     Wall clock time:  0.21982336044311523
(PID.TID 0000.0001)          No. starts:           4
(PID.TID 0000.0001)           No. stops:           4
(PID.TID 0000.0001)   Seconds in section "DO_THE_MODEL_IO     [FORWARD_STEP]":
(PID.TID 0000.0001)           User time:   1.6900000000000119
(PID.TID 0000.0001)         System time:   0.0000000000000000
(PID.TID 0000.0001)     Wall clock time:   1.7007210254669189
(PID.TID 0000.0001)          No. starts:           4
(PID.TID 0000.0001)           No. stops:           4
(PID.TID 0000.0001)   Seconds in section "DO_WRITE_PICKUP     [FORWARD_STEP]":
(PID.TID 0000.0001)           User time:  0.89000000000000057
(PID.TID 0000.0001)         System time:  0.11000000000000010
(PID.TID 0000.0001)     Wall clock time:   1.0069081783294678
(PID.TID 0000.0001)          No. starts:           4
(PID.TID 0000.0001)           No. stops:           4
(PID.TID 0000.0001) // ======================================================
(PID.TID 0000.0001) // Tile <-> Tile communication statistics
(PID.TID 0000.0001) // ======================================================
(PID.TID 0000.0001) // o Tile number: 000001
(PID.TID 0000.0001) //         No. X exchanges =              0
(PID.TID 0000.0001) //            Max. X spins =              0
(PID.TID 0000.0001) //            Min. X spins =     1000000000
(PID.TID 0000.0001) //          Total. X spins =              0
(PID.TID 0000.0001) //            Avg. X spins =       0.00E+00
(PID.TID 0000.0001) //         No. Y exchanges =              0
(PID.TID 0000.0001) //            Max. Y spins =              0
(PID.TID 0000.0001) //            Min. Y spins =     1000000000
(PID.TID 0000.0001) //          Total. Y spins =              0
(PID.TID 0000.0001) //            Avg. Y spins =       0.00E+00
(PID.TID 0000.0001) // o Tile number: 000002
(PID.TID 0000.0001) //         No. X exchanges =              0
(PID.TID 0000.0001) //            Max. X spins =              0
(PID.TID 0000.0001) //            Min. X spins =     1000000000
(PID.TID 0000.0001) //          Total. X spins =              0
(PID.TID 0000.0001) //            Avg. X spins =       0.00E+00
(PID.TID 0000.0001) //         No. Y exchanges =              0
(PID.TID 0000.0001) //            Max. Y spins =              0
(PID.TID 0000.0001) //            Min. Y spins =     1000000000
(PID.TID 0000.0001) //          Total. Y spins =              0
(PID.TID 0000.0001) //            Avg. Y spins =       0.00E+00
(PID.TID 0000.0001) // o Tile number: 000003
(PID.TID 0000.0001) //         No. X exchanges =              0
(PID.TID 0000.0001) //            Max. X spins =              0
(PID.TID 0000.0001) //            Min. X spins =     1000000000
(PID.TID 0000.0001) //          Total. X spins =              0
(PID.TID 0000.0001) //            Avg. X spins =       0.00E+00
(PID.TID 0000.0001) //         No. Y exchanges =              0
(PID.TID 0000.0001) //            Max. Y spins =              0
(PID.TID 0000.0001) //            Min. Y spins =     1000000000
(PID.TID 0000.0001) //          Total. Y spins =              0
(PID.TID 0000.0001) //            Avg. Y spins =       0.00E+00
(PID.TID 0000.0001) // o Tile number: 000004
(PID.TID 0000.0001) //         No. X exchanges =              0
(PID.TID 0000.0001) //            Max. X spins =              0
(PID.TID 0000.0001) //            Min. X spins =     1000000000
(PID.TID 0000.0001) //          Total. X spins =              0
(PID.TID 0000.0001) //            Avg. X spins =       0.00E+00
(PID.TID 0000.0001) //         No. Y exchanges =              0
(PID.TID 0000.0001) //            Max. Y spins =              0
(PID.TID 0000.0001) //            Min. Y spins =     1000000000
(PID.TID 0000.0001) //          Total. Y spins =              0
(PID.TID 0000.0001) //            Avg. Y spins =       0.00E+00
(PID.TID 0000.0001) // o Thread number: 000001
(PID.TID 0000.0001) //            No. barriers =          31996
(PID.TID 0000.0001) //      Max. barrier spins =              1
(PID.TID 0000.0001) //      Min. barrier spins =              1
(PID.TID 0000.0001) //     Total barrier spins =          31996
(PID.TID 0000.0001) //      Avg. barrier spins =       1.00E+00
PROGRAM MAIN: Execution ended Normally
